REMARK  Name = 
REMARK  6 active torsions:
REMARK  status: ('A' for Active; 'I' for Inactive)
REMARK    1  A    between atoms: C_1  and  O_2
REMARK    2  A    between atoms: O_2  and  C_3
REMARK    3  A    between atoms: C_5  and  C_6
REMARK    4  A    between atoms: C_7  and  C_8
REMARK    5  A    between atoms: C_8  and  O_10
REMARK    6  A    between atoms: C_13  and  O_14
REMARK                            x       y       z     vdW  Elec       q    Type
REMARK                         _______ _______ _______ _____ _____    ______ ____
ROOT
ATOM      1  C   UNL     1      -1.911  -0.059   0.449  0.00  0.00    +0.000 A 
ATOM      2  C   UNL     1      -0.721   0.231  -0.222  0.00  0.00    +0.000 A 
ATOM      3  C   UNL     1       0.454  -0.489   0.062  0.00  0.00    +0.000 A 
ATOM      4  C   UNL     1       0.414  -1.522   1.010  0.00  0.00    +0.000 A 
ATOM      5  C   UNL     1      -0.771  -1.818   1.684  0.00  0.00    +0.000 A 
ATOM      6  C   UNL     1      -1.915  -1.086   1.399  0.00  0.00    +0.000 A 
ENDROOT
BRANCH   1   8
ATOM      7  C   UNL     1      -3.151   1.627  -0.679  0.00  0.00    +0.000 C 
ATOM      8  O   UNL     1      -3.116   0.570   0.273  0.00  0.00    +0.000 OA
ENDBRANCH   1   8
BRANCH   3   9
ATOM      9  C   UNL     1       1.677  -0.168  -0.688  0.00  0.00    +0.000 C 
ATOM     10  C   UNL     1       2.904  -0.169  -0.146  0.00  0.00    +0.000 C 
BRANCH  10  11
ATOM     11  C   UNL     1       4.124   0.163  -0.894  0.00  0.00    +0.000 C 
ATOM     12  O   UNL     1       5.245   0.157  -0.417  0.00  0.00    +0.000 OA
BRANCH  11  13
ATOM     13  O   UNL     1       3.908   0.484  -2.179  0.00  0.00    +0.000 OA
ATOM     14  H   UNL     1       4.805   0.670  -2.525  0.00  0.00    +0.000 HD
ENDBRANCH  11  13
ENDBRANCH  10  11
ENDBRANCH   3   9
BRANCH   6  15
ATOM     15  O   UNL     1      -3.065  -1.396   2.073  0.00  0.00    +0.000 OA
ATOM     16  H   UNL     1      -3.735  -0.775   1.727  0.00  0.00    +0.000 HD
ENDBRANCH   6  15
TORSDOF 5
