REMARK  Name = 
REMARK  11 active torsions:
REMARK  status: ('A' for Active; 'I' for Inactive)
REMARK    1  A    between atoms: C_2  and  C_3
REMARK    2  A    between atoms: C_2  and  O_13
REMARK    3  A    between atoms: C_4  and  C_5
REMARK    4  A    between atoms: C_8  and  O_9
REMARK    5  A    between atoms: C_10  and  O_11
REMARK    6  A    between atoms: O_13  and  C_14
REMARK    7  A    between atoms: C_16  and  O_17
REMARK    8  A    between atoms: C_16  and  C_18
REMARK    9  A    between atoms: C_18  and  O_20
REMARK   10  A    between atoms: C_22  and  O_23
REMARK   11  A    between atoms: C_24  and  O_25
REMARK                            x       y       z     vdW  Elec       q    Type
REMARK                         _______ _______ _______ _____ _____    ______ ____
ROOT
ATOM      1  C   UNL     1      -1.829  -0.519   0.732  0.00  0.00    +0.000 C 
ATOM      2  C   UNL     1      -2.486   0.866   0.632  0.00  0.00    +0.000 C 
ATOM      3  C   UNL     1      -4.016   0.770   0.632  0.00  0.00    +0.000 C 
ATOM      4  C   UNL     1      -4.550  -0.210  -0.418  0.00  0.00    +0.000 C 
ATOM      5  C   UNL     1      -3.874  -1.578  -0.293  0.00  0.00    +0.000 C 
ATOM      6  C   UNL     1      -2.344  -1.444  -0.383  0.00  0.00    +0.000 C 
ENDROOT
BRANCH   3   7
ATOM      7  O   UNL     1      -4.419   0.265   1.917  0.00  0.00    +0.000 OA
ATOM      8  H   UNL     1      -4.525   1.040   2.506  0.00  0.00    +0.000 HD
ENDBRANCH   3   7
BRANCH   3   9
ATOM      9  C   UNL     1      -4.618   2.166   0.433  0.00  0.00    +0.000 C 
ATOM     10  O   UNL     1      -5.188   2.808   1.305  0.00  0.00    +0.000 OA
BRANCH   9  11
ATOM     11  O   UNL     1      -4.441   2.685  -0.794  0.00  0.00    +0.000 OA
ATOM     12  H   UNL     1      -4.867   3.567  -0.757  0.00  0.00    +0.000 HD
ENDBRANCH   9  11
ENDBRANCH   3   9
BRANCH   5  13
ATOM     13  O   UNL     1      -4.351  -2.456  -1.315  0.00  0.00    +0.000 OA
ATOM     14  H   UNL     1      -5.322  -2.448  -1.284  0.00  0.00    +0.000 HD
ENDBRANCH   5  13
BRANCH   6  15
ATOM     15  O   UNL     1      -1.973  -0.882  -1.655  0.00  0.00    +0.000 OA
ATOM     16  H   UNL     1      -1.000  -0.852  -1.663  0.00  0.00    +0.000 HD
ENDBRANCH   6  15
BRANCH   1  17
ATOM     17  O   UNL     1      -0.397  -0.392   0.563  0.00  0.00    +0.000 OA
BRANCH  17  19
ATOM     18  O   UNL     1      -0.170   0.195   2.772  0.00  0.00    +0.000 OA
ATOM     19  C   UNL     1       0.299  -0.031   1.667  0.00  0.00    +0.000 C 
BRANCH  19  20
ATOM     20  C   UNL     1       1.748   0.071   1.400  0.00  0.00    +0.000 C 
ATOM     21  C   UNL     1       2.321  -0.170   0.211  0.00  0.00    +0.000 C 
BRANCH  21  22
ATOM     22  C   UNL     1       3.766  -0.051  -0.033  0.00  0.00    +0.000 A 
ATOM     23  C   UNL     1       4.199   0.483  -1.258  0.00  0.00    +0.000 A 
ATOM     24  C   UNL     1       5.562   0.594  -1.547  0.00  0.00    +0.000 A 
ATOM     25  C   UNL     1       6.488   0.158  -0.613  0.00  0.00    +0.000 A 
ATOM     26  C   UNL     1       6.074  -0.388   0.598  0.00  0.00    +0.000 A 
ATOM     27  C   UNL     1       4.719  -0.501   0.895  0.00  0.00    +0.000 A 
BRANCH  25  28
ATOM     28  O   UNL     1       7.819   0.264  -0.895  0.00  0.00    +0.000 OA
ATOM     29  H   UNL     1       8.268  -0.103  -0.107  0.00  0.00    +0.000 HD
ENDBRANCH  25  28
BRANCH  26  30
ATOM     30  O   UNL     1       7.043  -0.808   1.468  0.00  0.00    +0.000 OA
ATOM     31  H   UNL     1       6.609  -1.172   2.258  0.00  0.00    +0.000 HD
ENDBRANCH  26  30
ENDBRANCH  21  22
ENDBRANCH  19  20
ENDBRANCH  17  19
ENDBRANCH   1  17
TORSDOF 11
