REMARK  Name = 
REMARK  5 active torsions:
REMARK  status: ('A' for Active; 'I' for Inactive)
REMARK    1  A    between atoms: C_2  and  O_3
REMARK    2  A    between atoms: C_2  and  C_4
REMARK    3  A    between atoms: C_5  and  C_6
REMARK    4  A    between atoms: C_9  and  O_10
REMARK    5  A    between atoms: C_11  and  O_12
REMARK                            x       y       z     vdW  Elec       q    Type
REMARK                         _______ _______ _______ _____ _____    ______ ____
ROOT
ATOM      1  C   UNL     1      -0.017   0.380  -0.141  0.00  0.00    +0.000 A 
ATOM      2  C   UNL     1       0.605   1.549  -0.611  0.00  0.00    +0.000 A 
ATOM      3  C   UNL     1       1.996   1.619  -0.734  0.00  0.00    +0.000 A 
ATOM      4  C   UNL     1       2.761   0.522  -0.374  0.00  0.00    +0.000 A 
ATOM      5  C   UNL     1       2.160  -0.637   0.109  0.00  0.00    +0.000 A 
ATOM      6  C   UNL     1       0.776  -0.716   0.234  0.00  0.00    +0.000 A 
ENDROOT
BRANCH   1   8
ATOM      7  C   UNL     1      -2.247  -0.696  -0.282  0.00  0.00    +0.000 C 
ATOM      8  C   UNL     1      -1.480   0.369  -0.005  0.00  0.00    +0.000 C 
BRANCH   7  10
ATOM      9  O   UNL     1      -4.415  -1.667  -0.393  0.00  0.00    +0.000 OA
ATOM     10  C   UNL     1      -3.711  -0.701  -0.156  0.00  0.00    +0.000 C 
BRANCH  10  11
ATOM     11  O   UNL     1      -4.229   0.466   0.252  0.00  0.00    +0.000 OA
ATOM     12  H   UNL     1      -5.194   0.297   0.282  0.00  0.00    +0.000 HD
ENDBRANCH  10  11
ENDBRANCH   7  10
ENDBRANCH   1   8
BRANCH   4  13
ATOM     13  O   UNL     1       4.119   0.589  -0.492  0.00  0.00    +0.000 OA
ATOM     14  H   UNL     1       4.436  -0.283  -0.181  0.00  0.00    +0.000 HD
ENDBRANCH   4  13
BRANCH   5  15
ATOM     15  O   UNL     1       2.979  -1.677   0.457  0.00  0.00    +0.000 OA
ATOM     16  H   UNL     1       2.424  -2.406   0.782  0.00  0.00    +0.000 HD
ENDBRANCH   5  15
TORSDOF 5
