REMARK  Name = 
REMARK  4 active torsions:
REMARK  status: ('A' for Active; 'I' for Inactive)
REMARK    1  A    between atoms: C_4  and  C_5
REMARK    2  A    between atoms: C_8  and  O_9
REMARK    3  A    between atoms: C_15  and  O_16
REMARK    4  A    between atoms: C_18  and  O_19
REMARK                            x       y       z     vdW  Elec       q    Type
REMARK                         _______ _______ _______ _____ _____    ______ ____
ROOT
ATOM      1  O   UNL     1       2.043   2.344  -1.932  0.00  0.00    +0.000 OA
ATOM      2  C   UNL     1       1.521   1.482  -1.232  0.00  0.00    +0.000 A 
ATOM      3  C   UNL     1       0.068   1.265  -1.236  0.00  0.00    +0.000 A 
ATOM      4  C   UNL     1      -0.449   0.314  -0.445  0.00  0.00    +0.000 A 
ATOM      5  O   UNL     1       0.302  -0.508   0.381  0.00  0.00    +0.000 OA
ATOM      6  C   UNL     1       1.664  -0.333   0.416  0.00  0.00    +0.000 A 
ATOM      7  C   UNL     1       2.387  -1.170   1.268  0.00  0.00    +0.000 A 
ATOM      8  C   UNL     1       3.771  -1.035   1.340  0.00  0.00    +0.000 A 
ATOM      9  C   UNL     1       4.440  -0.081   0.577  0.00  0.00    +0.000 A 
ATOM     10  C   UNL     1       3.714   0.751  -0.271  0.00  0.00    +0.000 A 
ATOM     11  C   UNL     1       2.324   0.625  -0.352  0.00  0.00    +0.000 A 
ENDROOT
BRANCH   4  12
ATOM     12  C   UNL     1      -1.899   0.041  -0.410  0.00  0.00    +0.000 A 
ATOM     13  C   UNL     1      -2.840   1.081  -0.340  0.00  0.00    +0.000 A 
ATOM     14  C   UNL     1      -4.210   0.805  -0.296  0.00  0.00    +0.000 A 
ATOM     15  C   UNL     1      -4.643  -0.515  -0.317  0.00  0.00    +0.000 A 
ATOM     16  C   UNL     1      -3.731  -1.560  -0.378  0.00  0.00    +0.000 A 
ATOM     17  C   UNL     1      -2.362  -1.284  -0.420  0.00  0.00    +0.000 A 
BRANCH  15  18
ATOM     18  O   UNL     1      -5.968  -0.831  -0.277  0.00  0.00    +0.000 OA
ATOM     19  H   UNL     1      -6.484  -0.009  -0.237  0.00  0.00    +0.000 HD
ENDBRANCH  15  18
ENDBRANCH   4  12
BRANCH   8  20
ATOM     20  O   UNL     1       4.519  -1.829   2.158  0.00  0.00    +0.000 OA
ATOM     21  H   UNL     1       3.934  -2.442   2.633  0.00  0.00    +0.000 HD
ENDBRANCH   8  20
BRANCH  10  22
ATOM     22  O   UNL     1       4.422   1.670  -0.997  0.00  0.00    +0.000 OA
ATOM     23  H   UNL     1       3.789   2.183  -1.548  0.00  0.00    +0.000 HD
ENDBRANCH  10  22
TORSDOF 4
