REMARK  Name = 
REMARK  0 active torsions:
REMARK  status: ('A' for Active; 'I' for Inactive)
REMARK                            x       y       z     vdW  Elec       q    Type
REMARK                         _______ _______ _______ _____ _____    ______ ____
ROOT
ATOM      1  S   UNL     1       3.522   2.026  -0.374  0.00  0.00    +0.000 S 
ATOM      2  C   UNL     1       2.189   1.032  -0.313  0.00  0.00    +0.000 C 
ATOM      3  C   UNL     1       2.250  -0.466  -0.281  0.00  0.00    +0.000 C 
ATOM      4  C   UNL     1       1.194  -1.018   0.661  0.00  0.00    +0.000 C 
ATOM      5  C   UNL     1      -0.139  -0.441   0.301  0.00  0.00    +0.000 A 
ATOM      6  C   UNL     1      -1.328  -1.147   0.503  0.00  0.00    +0.000 A 
ATOM      7  C   UNL     1      -2.554  -0.559   0.179  0.00  0.00    +0.000 A 
ATOM      8  C   UNL     1      -2.601   0.738  -0.336  0.00  0.00    +0.000 A 
ATOM      9  C   UNL     1      -1.421   1.455  -0.526  0.00  0.00    +0.000 A 
ATOM     10  C   UNL     1      -0.204   0.857  -0.206  0.00  0.00    +0.000 A 
ATOM     11  O   UNL     1       0.956   1.635  -0.382  0.00  0.00    +0.000 OA
ENDROOT
TORSDOF 0
