REMARK  Name = 
REMARK  0 active torsions:
REMARK  status: ('A' for Active; 'I' for Inactive)
REMARK                            x       y       z     vdW  Elec       q    Type
REMARK                         _______ _______ _______ _____ _____    ______ ____
ROOT
ATOM      1  O   UNL     1       3.457   1.240   0.269  0.00  0.00    +0.000 OA
ATOM      2  C   UNL     1       2.377   0.667   0.164  0.00  0.00    +0.000 C 
ATOM      3  N   UNL     1       2.313  -0.673  -0.046  0.00  0.00    +0.000 N 
ATOM      4  C   UNL     1       1.110  -1.450   0.119  0.00  0.00    +0.000 C 
ATOM      5  C   UNL     1      -0.136  -0.639  -0.041  0.00  0.00    +0.000 A 
ATOM      6  C   UNL     1      -1.389  -1.242  -0.207  0.00  0.00    +0.000 A 
ATOM      7  C   UNL     1      -2.539  -0.454  -0.284  0.00  0.00    +0.000 A 
ATOM      8  C   UNL     1      -2.445   0.934  -0.182  0.00  0.00    +0.000 A 
ATOM      9  C   UNL     1      -1.201   1.541  -0.008  0.00  0.00    +0.000 A 
ATOM     10  C   UNL     1      -0.054   0.750   0.057  0.00  0.00    +0.000 A 
ATOM     11  N   UNL     1       1.198   1.344   0.220  0.00  0.00    +0.000 N 
ATOM     12  H   UNL     1       3.209  -1.138  -0.015  0.00  0.00    +0.000 HD
ATOM     13  H   UNL     1       1.280   2.346   0.314  0.00  0.00    +0.000 HD
ENDROOT
TORSDOF 0
