REMARK  Name = 
REMARK  5 active torsions:
REMARK  status: ('A' for Active; 'I' for Inactive)
REMARK    1  A    between atoms: C_1  and  C_2
REMARK    2  A    between atoms: C_4  and  C_5
REMARK    3  A    between atoms: C_5  and  C_6
REMARK    4  A    between atoms: C_5  and  C_7
REMARK    5  A    between atoms: C_5  and  O_8
REMARK                            x       y       z     vdW  Elec       q    Type
REMARK                         _______ _______ _______ _____ _____    ______ ____
ROOT
ATOM      1  C   UNL     1       3.307  -0.076  -0.700  0.00  0.00    +0.000 C 
ATOM      2  C   UNL     1       1.986   0.105  -0.043  0.00  0.00    +0.000 C 
ATOM      3  C   UNL     1       0.841   0.489  -0.621  0.00  0.00    +0.000 C 
ATOM      4  C   UNL     1      -0.280   0.611   0.376  0.00  0.00    +0.000 C 
ATOM      5  C   UNL     1       0.305  -0.106   1.610  0.00  0.00    +0.000 C 
ATOM      6  C   UNL     1       1.823  -0.094   1.431  0.00  0.00    +0.000 C 
ENDROOT
BRANCH   4   7
ATOM      7  C   UNL     1      -1.667   0.080  -0.074  0.00  0.00    +0.000 C 
ATOM      8  C   UNL     1      -1.643  -1.366  -0.589  0.00  0.00    +0.000 C 
ATOM      9  C   UNL     1      -2.268   0.993  -1.153  0.00  0.00    +0.000 C 
BRANCH   7  10
ATOM     10  O   UNL     1      -2.543   0.130   1.062  0.00  0.00    +0.000 OA
ATOM     11  H   UNL     1      -3.414  -0.201   0.783  0.00  0.00    +0.000 HD
ENDBRANCH   7  10
ENDBRANCH   4   7
TORSDOF 2
