REMARK  Name = 
REMARK  4 active torsions:
REMARK  status: ('A' for Active; 'I' for Inactive)
REMARK    1  A    between atoms: C_1  and  C_2
REMARK    2  A    between atoms: C_6  and  C_7
REMARK    3  A    between atoms: C_8  and  C_9
REMARK    4  A    between atoms: C_12  and  C_13
REMARK                            x       y       z     vdW  Elec       q    Type
REMARK                         _______ _______ _______ _____ _____    ______ ____
ROOT
ATOM      1  C   UNL     1       4.701   0.021  -0.231  0.00  0.00    +0.000 C 
ATOM      2  C   UNL     1       3.219   0.247  -0.217  0.00  0.00    +0.000 A 
ATOM      3  C   UNL     1       2.687   1.503  -0.492  0.00  0.00    +0.000 A 
ATOM      4  C   UNL     1       1.302   1.685  -0.508  0.00  0.00    +0.000 A 
ATOM      5  C   UNL     1       0.412   0.613  -0.261  0.00  0.00    +0.000 A 
ATOM      6  C   UNL     1      -1.005   0.737  -0.269  0.00  0.00    +0.000 A 
ATOM      7  C   UNL     1      -1.661   2.054  -0.603  0.00  0.00    +0.000 C 
ATOM      8  C   UNL     1      -1.778  -0.397   0.048  0.00  0.00    +0.000 A 
ATOM      9  C   UNL     1      -1.143  -1.615   0.285  0.00  0.00    +0.000 A 
ATOM     10  C   UNL     1      -1.906  -2.872   0.594  0.00  0.00    +0.000 C 
ATOM     11  N   UNL     1       0.207  -1.741   0.266  0.00  0.00    +0.000 NA
ATOM     12  C   UNL     1       0.961  -0.661   0.011  0.00  0.00    +0.000 A 
ATOM     13  C   UNL     1       2.341  -0.818   0.019  0.00  0.00    +0.000 A 
ENDROOT
BRANCH   8  14
ATOM     14  C   UNL     1      -3.249  -0.328   0.162  0.00  0.00    +0.000 C 
ATOM     15  N   UNL     1      -3.727   0.465   1.167  0.00  0.00    +0.000 N 
ATOM     16  O   UNL     1      -3.987  -0.964  -0.575  0.00  0.00    +0.000 OA
ATOM     17  H   UNL     1      -4.726   0.470   1.324  0.00  0.00    +0.000 HD
ATOM     18  H   UNL     1      -3.126   0.892   1.859  0.00  0.00    +0.000 HD
ENDBRANCH   8  14
TORSDOF 1
