REMARK  Name = 
REMARK  1 active torsions:
REMARK  status: ('A' for Active; 'I' for Inactive)
REMARK    1  A    between atoms: O_1  and  C_2
REMARK                            x       y       z     vdW  Elec       q    Type
REMARK                         _______ _______ _______ _____ _____    ______ ____
ROOT
ATOM      1  C   UNL     1       1.503   0.289  -0.336  0.00  0.00    +0.000 A 
ATOM      2  N   UNL     1       1.892  -0.948  -0.701  0.00  0.00    +0.000 NA
ATOM      3  C   UNL     1       0.959  -1.924  -0.663  0.00  0.00    +0.000 A 
ATOM      4  N   UNL     1      -0.342  -1.832  -0.301  0.00  0.00    +0.000 NA
ATOM      5  C   UNL     1      -0.649  -0.574   0.047  0.00  0.00    +0.000 A 
ATOM      6  N   UNL     1      -1.857  -0.098   0.466  0.00  0.00    +0.000 N 
ATOM      7  C   UNL     1      -1.708   1.243   0.711  0.00  0.00    +0.000 A 
ATOM      8  N   UNL     1      -0.479   1.656   0.475  0.00  0.00    +0.000 NA
ATOM      9  C   UNL     1       0.189   0.525   0.060  0.00  0.00    +0.000 A 
ATOM     10  H   UNL     1      -2.697  -0.647   0.570  0.00  0.00    +0.000 HD
ENDROOT
BRANCH   1  11
ATOM     11  O   UNL     1       2.448   1.283  -0.374  0.00  0.00    +0.000 OA
ATOM     12  H   UNL     1       1.971   2.081  -0.079  0.00  0.00    +0.000 HD
ENDBRANCH   1  11
TORSDOF 1
