REMARK  Name = 
REMARK  0 active torsions:
REMARK  status: ('A' for Active; 'I' for Inactive)
REMARK                            x       y       z     vdW  Elec       q    Type
REMARK                         _______ _______ _______ _____ _____    ______ ____
ROOT
ATOM      1  O   UNL     1       3.691   1.008  -0.125  0.00  0.00    +0.000 OA
ATOM      2  C   UNL     1       2.594   0.460  -0.063  0.00  0.00    +0.000 C 
ATOM      3  N   UNL     1       1.447   1.197  -0.128  0.00  0.00    +0.000 N 
ATOM      4  C   UNL     1       0.163   0.678  -0.068  0.00  0.00    +0.000 A 
ATOM      5  C   UNL     1      -0.943   1.524  -0.143  0.00  0.00    +0.000 A 
ATOM      6  C   UNL     1      -2.228   0.985  -0.081  0.00  0.00    +0.000 A 
ATOM      7  C   UNL     1      -2.399  -0.392   0.055  0.00  0.00    +0.000 A 
ATOM      8  C   UNL     1      -1.286  -1.231   0.130  0.00  0.00    +0.000 A 
ATOM      9  C   UNL     1       0.006  -0.692   0.068  0.00  0.00    +0.000 A 
ATOM     10  C   UNL     1       1.217  -1.561   0.145  0.00  0.00    +0.000 C 
ATOM     11  O   UNL     1       2.484  -0.885   0.070  0.00  0.00    +0.000 OA
ATOM     12  H   UNL     1       1.592   2.192  -0.227  0.00  0.00    +0.000 HD
ENDROOT
TORSDOF 0
