REMARK  Name = 
REMARK  3 active torsions:
REMARK  status: ('A' for Active; 'I' for Inactive)
REMARK    1  A    between atoms: N_1  and  C_2
REMARK    2  A    between atoms: C_5  and  S_6
REMARK    3  A    between atoms: S_6  and  N_9
REMARK                            x       y       z     vdW  Elec       q    Type
REMARK                         _______ _______ _______ _____ _____    ______ ____
ROOT
ATOM      1  S   UNL     1      -0.065   0.718   2.061  0.00  0.00    +0.000 S 
ATOM      2  O   UNL     1       0.559   1.755   2.860  0.00  0.00    +0.000 OA
ATOM      3  O   UNL     1      -0.601  -0.464   2.703  0.00  0.00    +0.000 OA
ENDROOT
BRANCH   1   4
ATOM      4  N   UNL     1      -1.247   1.477   1.178  0.00  0.00    +0.000 N 
ATOM      5  C   UNL     1      -2.191   0.677   0.547  0.00  0.00    +0.000 A 
ATOM      6  N   UNL     1      -1.787  -0.391  -0.140  0.00  0.00    +0.000 NA
ATOM      7  C   UNL     1      -2.740  -1.019  -0.852  0.00  0.00    +0.000 A 
ATOM      8  C   UNL     1      -4.043  -0.587  -0.920  0.00  0.00    +0.000 A 
ATOM      9  C   UNL     1      -4.325   0.558  -0.210  0.00  0.00    +0.000 A 
ATOM     10  N   UNL     1      -3.411   1.225   0.517  0.00  0.00    +0.000 NA
ATOM     11  H   UNL     1      -1.649   2.284   1.639  0.00  0.00    +0.000 HD
ENDBRANCH   1   4
BRANCH   1  15
ATOM     12  C   UNL     1       3.107  -0.508  -0.999  0.00  0.00    +0.000 A 
ATOM     13  C   UNL     1       2.295  -1.476  -0.397  0.00  0.00    +0.000 A 
ATOM     14  C   UNL     1       1.328  -1.112   0.544  0.00  0.00    +0.000 A 
ATOM     15  C   UNL     1       1.136   0.237   0.845  0.00  0.00    +0.000 A 
ATOM     16  C   UNL     1       1.905   1.219   0.218  0.00  0.00    +0.000 A 
ATOM     17  C   UNL     1       2.870   0.842  -0.721  0.00  0.00    +0.000 A 
BRANCH  12  18
ATOM     18  N   UNL     1       3.990  -0.870  -2.024  0.00  0.00    +0.000 N 
ATOM     19  H   UNL     1       4.336  -1.822  -1.948  0.00  0.00    +0.000 HD
ATOM     20  H   UNL     1       4.737  -0.201  -2.176  0.00  0.00    +0.000 HD
ENDBRANCH  12  18
ENDBRANCH   1  15
TORSDOF 3
