REMARK  Name = 
REMARK  3 active torsions:
REMARK  status: ('A' for Active; 'I' for Inactive)
REMARK    1  A    between atoms: C_1  and  C_2
REMARK    2  A    between atoms: C_5  and  C_6
REMARK    3  A    between atoms: C_6  and  O_7
REMARK                            x       y       z     vdW  Elec       q    Type
REMARK                         _______ _______ _______ _____ _____    ______ ____
ROOT
ATOM      1  C   UNL     1      -2.966  -0.330  -0.227  0.00  0.00    +0.000 C 
ATOM      2  C   UNL     1      -1.489  -0.121  -0.106  0.00  0.00    +0.000 A 
ATOM      3  N   UNL     1      -0.678  -0.941  -0.806  0.00  0.00    +0.000 NA
ATOM      4  C   UNL     1       0.648  -0.707  -0.706  0.00  0.00    +0.000 A 
ATOM      5  C   UNL     1       1.187   0.295   0.070  0.00  0.00    +0.000 A 
ATOM      6  C   UNL     1       0.277   1.089   0.732  0.00  0.00    +0.000 A 
ATOM      7  N   UNL     1      -1.060   0.900   0.662  0.00  0.00    +0.000 NA
ENDROOT
BRANCH   5   8
ATOM      8  C   UNL     1       2.630   0.500   0.164  0.00  0.00    +0.000 C 
ATOM      9  S   UNL     1       3.468   1.922   0.020  0.00  0.00    +0.000 S 
BRANCH   8  10
ATOM     10  O   UNL     1       3.345  -0.614   0.428  0.00  0.00    +0.000 OA
ATOM     11  H   UNL     1       2.804  -1.392   0.635  0.00  0.00    +0.000 HD
ENDBRANCH   8  10
ENDBRANCH   5   8
TORSDOF 2
