REMARK  Name = 
REMARK  0 active torsions:
REMARK  status: ('A' for Active; 'I' for Inactive)
REMARK                            x       y       z     vdW  Elec       q    Type
REMARK                         _______ _______ _______ _____ _____    ______ ____
ROOT
ATOM      1  O   UNL     1       3.445  -1.379   0.338  0.00  0.00    +0.000 OA
ATOM      2  C   UNL     1       2.402  -0.747   0.202  0.00  0.00    +0.000 A 
ATOM      3  N   UNL     1       2.396   0.602  -0.010  0.00  0.00    +0.000 N 
ATOM      4  C   UNL     1       1.285   1.394  -0.174  0.00  0.00    +0.000 A 
ATOM      5  O   UNL     1       1.364   2.602  -0.361  0.00  0.00    +0.000 OA
ATOM      6  C   UNL     1      -0.018   0.703  -0.111  0.00  0.00    +0.000 A 
ATOM      7  C   UNL     1      -1.217   1.403  -0.264  0.00  0.00    +0.000 A 
ATOM      8  C   UNL     1      -2.427   0.712  -0.198  0.00  0.00    +0.000 A 
ATOM      9  C   UNL     1      -2.435  -0.669   0.019  0.00  0.00    +0.000 A 
ATOM     10  C   UNL     1      -1.233  -1.367   0.171  0.00  0.00    +0.000 A 
ATOM     11  C   UNL     1      -0.024  -0.676   0.105  0.00  0.00    +0.000 A 
ATOM     12  N   UNL     1       1.184  -1.361   0.256  0.00  0.00    +0.000 N 
ATOM     13  H   UNL     1       3.294   1.059  -0.050  0.00  0.00    +0.000 HD
ATOM     14  H   UNL     1       1.198  -2.360   0.413  0.00  0.00    +0.000 HD
ENDROOT
TORSDOF 0
