REMARK  Name = 
REMARK  0 active torsions:
REMARK  status: ('A' for Active; 'I' for Inactive)
REMARK                            x       y       z     vdW  Elec       q    Type
REMARK                         _______ _______ _______ _____ _____    ______ ____
ROOT
ATOM      1  O   UNL     1      -2.219  -2.875   0.826  0.00  0.00    +0.000 OA
ATOM      2  C   UNL     1      -1.643  -1.857   0.452  0.00  0.00    +0.000 C 
ATOM      3  C   UNL     1      -2.350  -0.727  -0.222  0.00  0.00    +0.000 C 
ATOM      4  C   UNL     1      -2.089   0.571   0.515  0.00  0.00    +0.000 C 
ATOM      5  C   UNL     1      -0.904   1.313  -0.080  0.00  0.00    +0.000 C 
ATOM      6  C   UNL     1       0.430   0.619  -0.082  0.00  0.00    +0.000 A 
ATOM      7  C   UNL     1       1.535   1.418  -0.448  0.00  0.00    +0.000 A 
ATOM      8  C   UNL     1       2.835   0.905  -0.491  0.00  0.00    +0.000 A 
ATOM      9  C   UNL     1       3.063  -0.425  -0.168  0.00  0.00    +0.000 A 
ATOM     10  C   UNL     1       1.990  -1.236   0.188  0.00  0.00    +0.000 A 
ATOM     11  C   UNL     1       0.686  -0.719   0.218  0.00  0.00    +0.000 A 
ATOM     12  O   UNL     1      -0.270  -1.702   0.607  0.00  0.00    +0.000 OA
ENDROOT
TORSDOF 0
