REMARK  Name = 
REMARK  0 active torsions:
REMARK  status: ('A' for Active; 'I' for Inactive)
REMARK                            x       y       z     vdW  Elec       q    Type
REMARK                         _______ _______ _______ _____ _____    ______ ____
ROOT
ATOM      1  O   UNL     1       0.180   2.682  -0.113  0.00  0.00    +0.000 OA
ATOM      2  C   UNL     1       0.410   1.480  -0.077  0.00  0.00    +0.000 A 
ATOM      3  N   UNL     1       1.692   0.956  -0.115  0.00  0.00    +0.000 N 
ATOM      4  C   UNL     1       2.027  -0.385  -0.077  0.00  0.00    +0.000 A 
ATOM      5  S   UNL     1       3.619  -0.869  -0.131  0.00  0.00    +0.000 S 
ATOM      6  N   UNL     1       1.004  -1.295   0.005  0.00  0.00    +0.000 N 
ATOM      7  C   UNL     1      -0.289  -0.863   0.047  0.00  0.00    +0.000 A 
ATOM      8  N   UNL     1      -1.397  -1.635   0.128  0.00  0.00    +0.000 NA
ATOM      9  C   UNL     1      -2.391  -0.767   0.139  0.00  0.00    +0.000 A 
ATOM     10  N   UNL     1      -1.943   0.531   0.068  0.00  0.00    +0.000 N 
ATOM     11  C   UNL     1      -0.583   0.468   0.008  0.00  0.00    +0.000 A 
ATOM     12  H   UNL     1       2.443   1.628  -0.175  0.00  0.00    +0.000 HD
ATOM     13  H   UNL     1       1.179  -2.290   0.036  0.00  0.00    +0.000 HD
ATOM     14  H   UNL     1      -2.508   1.370   0.061  0.00  0.00    +0.000 HD
ENDROOT
TORSDOF 0
