REMARK  Name = 
REMARK  5 active torsions:
REMARK  status: ('A' for Active; 'I' for Inactive)
REMARK    1  A    between atoms: C_1  and  C_2
REMARK    2  A    between atoms: C_6  and  C_7
REMARK    3  A    between atoms: C_8  and  C_9
REMARK    4  A    between atoms: C_9  and  O_11
REMARK    5  A    between atoms: C_12  and  C_13
REMARK                            x       y       z     vdW  Elec       q    Type
REMARK                         _______ _______ _______ _____ _____    ______ ____
ROOT
ATOM      1  C   UNL     1      -4.558  -0.192   0.468  0.00  0.00    +0.000 C 
ATOM      2  C   UNL     1      -3.104   0.115   0.268  0.00  0.00    +0.000 A 
ATOM      3  C   UNL     1      -2.666   1.425   0.107  0.00  0.00    +0.000 A 
ATOM      4  C   UNL     1      -1.304   1.692  -0.044  0.00  0.00    +0.000 A 
ATOM      5  C   UNL     1      -0.340   0.656  -0.026  0.00  0.00    +0.000 A 
ATOM      6  C   UNL     1       1.061   0.867  -0.166  0.00  0.00    +0.000 A 
ATOM      7  C   UNL     1       1.620   2.261  -0.303  0.00  0.00    +0.000 C 
ATOM      8  C   UNL     1       1.910  -0.258  -0.196  0.00  0.00    +0.000 A 
ATOM      9  C   UNL     1       1.365  -1.529  -0.013  0.00  0.00    +0.000 A 
ATOM     10  C   UNL     1       2.207  -2.773  -0.003  0.00  0.00    +0.000 C 
ATOM     11  N   UNL     1       0.035  -1.727   0.161  0.00  0.00    +0.000 NA
ATOM     12  C   UNL     1      -0.792  -0.672   0.141  0.00  0.00    +0.000 A 
ATOM     13  C   UNL     1      -2.152  -0.913   0.293  0.00  0.00    +0.000 A 
ENDROOT
BRANCH   8  14
ATOM     14  C   UNL     1       3.363  -0.138  -0.413  0.00  0.00    +0.000 C 
ATOM     15  O   UNL     1       4.243  -0.568   0.305  0.00  0.00    +0.000 OA
BRANCH  14  16
ATOM     16  O   UNL     1       3.626   0.475  -1.581  0.00  0.00    +0.000 OA
ATOM     17  H   UNL     1       4.604   0.466  -1.646  0.00  0.00    +0.000 HD
ENDBRANCH  14  16
ENDBRANCH   8  14
TORSDOF 2
