REMARK  Name = 
REMARK  6 active torsions:
REMARK  status: ('A' for Active; 'I' for Inactive)
REMARK    1  A    between atoms: C_1  and  C_2
REMARK    2  A    between atoms: C_2  and  C_3
REMARK    3  A    between atoms: C_6  and  C_7
REMARK    4  A    between atoms: C_7  and  C_8
REMARK    5  A    between atoms: C_7  and  C_9
REMARK    6  A    between atoms: C_7  and  O_10
REMARK                            x       y       z     vdW  Elec       q    Type
REMARK                         _______ _______ _______ _____ _____    ______ ____
ROOT
ATOM      1  C   UNL     1       2.009  -0.051  -0.424  0.00  0.00    +0.000 C 
ATOM      2  C   UNL     1       1.324   0.889  -1.099  0.00  0.00    +0.000 C 
ATOM      3  C   UNL     1      -0.169   1.044  -1.037  0.00  0.00    +0.000 C 
ATOM      4  C   UNL     1      -0.905  -0.176  -0.436  0.00  0.00    +0.000 C 
ATOM      5  C   UNL     1      -0.138  -0.643   0.817  0.00  0.00    +0.000 C 
ATOM      6  C   UNL     1       1.309  -1.029   0.486  0.00  0.00    +0.000 C 
ENDROOT
BRANCH   4   7
ATOM      7  C   UNL     1      -2.411   0.119  -0.159  0.00  0.00    +0.000 C 
ATOM      8  C   UNL     1      -3.135   0.619  -1.417  0.00  0.00    +0.000 C 
ATOM      9  C   UNL     1      -3.146  -1.121   0.371  0.00  0.00    +0.000 C 
BRANCH   7  10
ATOM     10  O   UNL     1      -2.510   1.143   0.836  0.00  0.00    +0.000 OA
ATOM     11  H   UNL     1      -3.454   1.305   1.010  0.00  0.00    +0.000 HD
ENDBRANCH   7  10
ENDBRANCH   4   7
BRANCH   1  13
ATOM     12  C   UNL     1       4.263   0.342   0.639  0.00  0.00    +0.000 C 
ATOM     13  C   UNL     1       3.505  -0.197  -0.566  0.00  0.00    +0.000 C 
ENDBRANCH   1  13
TORSDOF 3
