REMARK  Name = 
REMARK  5 active torsions:
REMARK  status: ('A' for Active; 'I' for Inactive)
REMARK    1  A    between atoms: C_1  and  C_2
REMARK    2  A    between atoms: C_7  and  N_8
REMARK    3  A    between atoms: C_9  and  C_11
REMARK    4  A    between atoms: C_11  and  C_12
REMARK    5  A    between atoms: C_11  and  O_13
REMARK                            x       y       z     vdW  Elec       q    Type
REMARK                         _______ _______ _______ _____ _____    ______ ____
ROOT
ATOM      1  N   UNL     1       0.535   0.159   0.005  0.00  0.00    +0.000 N 
ATOM      2  C   UNL     1       1.326   0.768  -0.952  0.00  0.00    +0.000 C 
ATOM      3  O   UNL     1       0.970   1.570  -1.814  0.00  0.00    +0.000 OA
ATOM      4  H   UNL     1       1.015  -0.438   0.664  0.00  0.00    +0.000 HD
ENDROOT
BRANCH   1  11
ATOM      5  C   UNL     1      -0.694  -1.291   2.201  0.00  0.00    +0.000 C 
ATOM      6  C   UNL     1      -1.473  -0.414   1.258  0.00  0.00    +0.000 A 
ATOM      7  C   UNL     1      -2.861  -0.297   1.456  0.00  0.00    +0.000 A 
ATOM      8  C   UNL     1      -3.639   0.498   0.619  0.00  0.00    +0.000 A 
ATOM      9  C   UNL     1      -3.039   1.186  -0.428  0.00  0.00    +0.000 A 
ATOM     10  C   UNL     1      -1.661   1.081  -0.639  0.00  0.00    +0.000 A 
ATOM     11  C   UNL     1      -0.862   0.288   0.193  0.00  0.00    +0.000 A 
ENDBRANCH   1  11
BRANCH   2  12
ATOM     12  C   UNL     1       2.813   0.367  -0.863  0.00  0.00    +0.000 C 
ATOM     13  C   UNL     1       3.017  -1.093  -1.234  0.00  0.00    +0.000 C 
BRANCH  12  14
ATOM     14  O   UNL     1       3.614   1.163  -1.734  0.00  0.00    +0.000 OA
ATOM     15  H   UNL     1       2.983   1.659  -2.298  0.00  0.00    +0.000 HD
ENDBRANCH  12  14
ENDBRANCH   2  12
TORSDOF 3
