REMARK  Name = 
REMARK  1 active torsions:
REMARK  status: ('A' for Active; 'I' for Inactive)
REMARK    1  A    between atoms: C_1  and  N_2
REMARK                            x       y       z     vdW  Elec       q    Type
REMARK                         _______ _______ _______ _____ _____    ______ ____
ROOT
ATOM      1  C   UNL     1       2.502  -0.132   0.245  0.00  0.00    +0.000 C 
ATOM      2  N   UNL     1       1.051  -0.089   0.041  0.00  0.00    +0.000 N 
ATOM      3  C   UNL     1       0.326   0.822   0.782  0.00  0.00    +0.000 A 
ATOM      4  C   UNL     1      -0.995   0.935   0.657  0.00  0.00    +0.000 A 
ATOM      5  C   UNL     1      -1.627   0.032  -0.318  0.00  0.00    +0.000 A 
ATOM      6  N   UNL     1      -2.981   0.073  -0.506  0.00  0.00    +0.000 N 
ATOM      7  N   UNL     1      -0.963  -0.827  -1.025  0.00  0.00    +0.000 NA
ATOM      8  C   UNL     1       0.405  -0.931  -0.888  0.00  0.00    +0.000 A 
ATOM      9  S   UNL     1       1.232  -2.067  -1.837  0.00  0.00    +0.000 S 
ATOM     10  H   UNL     1      -3.546   0.260   0.313  0.00  0.00    +0.000 HD
ATOM     11  H   UNL     1      -3.306  -0.733  -1.032  0.00  0.00    +0.000 HD
ENDROOT
TORSDOF 0
