REMARK  Name = 
REMARK  0 active torsions:
REMARK  status: ('A' for Active; 'I' for Inactive)
REMARK                            x       y       z     vdW  Elec       q    Type
REMARK                         _______ _______ _______ _____ _____    ______ ____
ROOT
ATOM      1  S   UNL     1       4.045   0.292  -0.114  0.00  0.00    +0.000 S 
ATOM      2  C   UNL     1       2.402   0.173  -0.068  0.00  0.00    +0.000 A 
ATOM      3  N   UNL     1       1.652  -1.002  -0.193  0.00  0.00    +0.000 N 
ATOM      4  C   UNL     1       0.302  -0.671  -0.099  0.00  0.00    +0.000 A 
ATOM      5  C   UNL     1      -0.807  -1.480  -0.163  0.00  0.00    +0.000 A 
ATOM      6  C   UNL     1      -2.051  -0.851  -0.034  0.00  0.00    +0.000 A 
ATOM      7  C   UNL     1      -2.147   0.547   0.152  0.00  0.00    +0.000 A 
ATOM      8  C   UNL     1      -1.001   1.350   0.214  0.00  0.00    +0.000 A 
ATOM      9  C   UNL     1       0.207   0.708   0.085  0.00  0.00    +0.000 A 
ATOM     10  N   UNL     1       1.499   1.230   0.104  0.00  0.00    +0.000 N 
ATOM     11  H   UNL     1       2.037  -1.924  -0.328  0.00  0.00    +0.000 HD
ATOM     12  H   UNL     1       1.755   2.198   0.221  0.00  0.00    +0.000 HD
ENDROOT
TORSDOF 0
