REMARK  Name = 
REMARK  0 active torsions:
REMARK  status: ('A' for Active; 'I' for Inactive)
REMARK                            x       y       z     vdW  Elec       q    Type
REMARK                         _______ _______ _______ _____ _____    ______ ____
ROOT
ATOM      1  O   UNL     1       1.380   2.623   0.014  0.00  0.00    +0.000 OA
ATOM      2  C   UNL     1       1.284   1.402   0.002  0.00  0.00    +0.000 A 
ATOM      3  N   UNL     1       2.389   0.580  -0.016  0.00  0.00    +0.000 N 
ATOM      4  C   UNL     1       2.369  -0.784  -0.030  0.00  0.00    +0.000 A 
ATOM      5  S   UNL     1       3.773  -1.674  -0.052  0.00  0.00    +0.000 S 
ATOM      6  N   UNL     1       1.149  -1.392  -0.025  0.00  0.00    +0.000 N 
ATOM      7  C   UNL     1      -0.052  -0.673  -0.006  0.00  0.00    +0.000 A 
ATOM      8  C   UNL     1      -1.271  -1.349  -0.002  0.00  0.00    +0.000 A 
ATOM      9  C   UNL     1      -2.464  -0.621   0.017  0.00  0.00    +0.000 A 
ATOM     10  C   UNL     1      -2.438   0.776   0.031  0.00  0.00    +0.000 A 
ATOM     11  C   UNL     1      -1.218   1.453   0.026  0.00  0.00    +0.000 A 
ATOM     12  C   UNL     1      -0.027   0.723   0.008  0.00  0.00    +0.000 A 
ATOM     13  H   UNL     1       3.287   1.043  -0.020  0.00  0.00    +0.000 HD
ATOM     14  H   UNL     1       1.132  -2.406  -0.035  0.00  0.00    +0.000 HD
ENDROOT
TORSDOF 0
