REMARK  Name = 
REMARK  3 active torsions:
REMARK  status: ('A' for Active; 'I' for Inactive)
REMARK    1  A    between atoms: N_1  and  C_2
REMARK    2  A    between atoms: C_5  and  S_6
REMARK    3  A    between atoms: S_6  and  N_9
REMARK                            x       y       z     vdW  Elec       q    Type
REMARK                         _______ _______ _______ _____ _____    ______ ____
ROOT
ATOM      1  S   UNL     1      -0.221  -0.536   0.893  0.00  0.00    +0.000 S 
ATOM      2  O   UNL     1      -0.665   0.405   1.896  0.00  0.00    +0.000 OA
ATOM      3  S   UNL     1      -0.195  -2.414   1.693  0.00  0.00    +0.000 S 
ENDROOT
BRANCH   1   4
ATOM      4  N   UNL     1      -1.237  -0.389  -0.426  0.00  0.00    +0.000 N 
ATOM      5  C   UNL     1      -2.611  -0.387  -0.224  0.00  0.00    +0.000 A 
ATOM      6  N   UNL     1      -3.200  -1.253   0.607  0.00  0.00    +0.000 NA
ATOM      7  C   UNL     1      -4.540  -1.192   0.722  0.00  0.00    +0.000 A 
ATOM      8  C   UNL     1      -5.317  -0.308   0.019  0.00  0.00    +0.000 A 
ATOM      9  C   UNL     1      -4.630   0.525  -0.826  0.00  0.00    +0.000 A 
ATOM     10  N   UNL     1      -3.290   0.501  -0.970  0.00  0.00    +0.000 NA
ATOM     11  H   UNL     1      -1.083   0.470  -0.936  0.00  0.00    +0.000 HD
ENDBRANCH   1   4
BRANCH   1  15
ATOM     12  C   UNL     1       3.986   0.589  -0.463  0.00  0.00    +0.000 A 
ATOM     13  C   UNL     1       3.213  -0.310  -1.205  0.00  0.00    +0.000 A 
ATOM     14  C   UNL     1       1.934  -0.677  -0.779  0.00  0.00    +0.000 A 
ATOM     15  C   UNL     1       1.412  -0.109   0.384  0.00  0.00    +0.000 A 
ATOM     16  C   UNL     1       2.143   0.837   1.103  0.00  0.00    +0.000 A 
ATOM     17  C   UNL     1       3.420   1.194   0.664  0.00  0.00    +0.000 A 
BRANCH  12  18
ATOM     18  N   UNL     1       5.212   1.041  -0.963  0.00  0.00    +0.000 N 
ATOM     19  H   UNL     1       5.688   0.370  -1.557  0.00  0.00    +0.000 HD
ATOM     20  H   UNL     1       5.828   1.428  -0.254  0.00  0.00    +0.000 HD
ENDBRANCH  12  18
ENDBRANCH   1  15
TORSDOF 3
