REMARK  Name = 
REMARK  8 active torsions:
REMARK  status: ('A' for Active; 'I' for Inactive)
REMARK    1  A    between atoms: C_1  and  C_2
REMARK    2  A    between atoms: C_2  and  C_3
REMARK    3  A    between atoms: C_2  and  C_4
REMARK    4  A    between atoms: C_4  and  C_5
REMARK    5  A    between atoms: C_8  and  C_9
REMARK    6  A    between atoms: C_9  and  C_10
REMARK    7  A    between atoms: C_9  and  C_11
REMARK    8  A    between atoms: C_11  and  N_12
REMARK                            x       y       z     vdW  Elec       q    Type
REMARK                         _______ _______ _______ _____ _____    ______ ____
ROOT
ATOM      1  C   UNL     1       1.160   0.708   0.000  0.00  0.00    +0.000 A 
ATOM      2  C   UNL     1       0.379   0.334   1.100  0.00  0.00    +0.000 A 
ATOM      3  C   UNL     1      -0.969   0.002   0.936  0.00  0.00    +0.000 A 
ATOM      4  C   UNL     1      -1.566   0.034  -0.332  0.00  0.00    +0.000 A 
ATOM      5  C   UNL     1      -0.781   0.414  -1.430  0.00  0.00    +0.000 A 
ATOM      6  C   UNL     1       0.566   0.746  -1.266  0.00  0.00    +0.000 A 
ENDROOT
BRANCH   4   7
ATOM      7  C   UNL     1      -3.034  -0.315  -0.537  0.00  0.00    +0.000 C 
ATOM      8  C   UNL     1      -3.338  -1.733  -0.039  0.00  0.00    +0.000 C 
BRANCH   7   9
ATOM      9  C   UNL     1      -3.939   0.754   0.116  0.00  0.00    +0.000 C 
BRANCH   9  10
ATOM     10  N   UNL     1      -5.360   0.564  -0.179  0.00  0.00    +0.000 NA
ATOM     11  H   UNL     1      -5.892   1.323   0.247  0.00  0.00    +0.000 HD
ATOM     12  H   UNL     1      -5.692  -0.292   0.262  0.00  0.00    +0.000 HD
ENDBRANCH   9  10
ENDBRANCH   7   9
ENDBRANCH   4   7
BRANCH   1  13
ATOM     13  C   UNL     1       2.617   1.061   0.178  0.00  0.00    +0.000 C 
BRANCH  13  15
ATOM     14  C   UNL     1       4.923   0.326   0.854  0.00  0.00    +0.000 C 
ATOM     15  C   UNL     1       3.520  -0.153   0.472  0.00  0.00    +0.000 C 
ATOM     16  C   UNL     1       3.608  -1.105  -0.723  0.00  0.00    +0.000 C 
ENDBRANCH  13  15
ENDBRANCH   1  13
TORSDOF 5
