REMARK  Name = 
REMARK  0 active torsions:
REMARK  status: ('A' for Active; 'I' for Inactive)
REMARK                            x       y       z     vdW  Elec       q    Type
REMARK                         _______ _______ _______ _____ _____    ______ ____
ROOT
ATOM      1  O   UNL     1       3.823  -0.464  -0.139  0.00  0.00    +0.000 OA
ATOM      2  C   UNL     1       2.666  -0.056  -0.092  0.00  0.00    +0.000 A 
ATOM      3  N   UNL     1       1.633  -0.949  -0.073  0.00  0.00    +0.000 N 
ATOM      4  C   UNL     1       0.305  -0.570  -0.021  0.00  0.00    +0.000 A 
ATOM      5  C   UNL     1      -0.710  -1.525  -0.003  0.00  0.00    +0.000 A 
ATOM      6  C   UNL     1      -2.042  -1.108   0.050  0.00  0.00    +0.000 A 
ATOM      7  C   UNL     1      -2.351   0.254   0.085  0.00  0.00    +0.000 A 
ATOM      8  C   UNL     1      -1.326   1.201   0.067  0.00  0.00    +0.000 A 
ATOM      9  C   UNL     1       0.006   0.778   0.014  0.00  0.00    +0.000 A 
ATOM     10  C   UNL     1       1.117   1.740  -0.007  0.00  0.00    +0.000 A 
ATOM     11  O   UNL     1       0.879   2.943   0.023  0.00  0.00    +0.000 OA
ATOM     12  O   UNL     1       2.383   1.271  -0.059  0.00  0.00    +0.000 OA
ATOM     13  H   UNL     1       1.901  -1.924  -0.100  0.00  0.00    +0.000 HD
ENDROOT
TORSDOF 0
