REMARK  Name = 
REMARK  2 active torsions:
REMARK  status: ('A' for Active; 'I' for Inactive)
REMARK    1  A    between atoms: C_1  and  N_2
REMARK    2  A    between atoms: C_5  and  O_6
REMARK                            x       y       z     vdW  Elec       q    Type
REMARK                         _______ _______ _______ _____ _____    ______ ____
ROOT
ATOM      1  C   UNL     1      -2.248  -0.091  -0.191  0.00  0.00    +0.000 C 
ATOM      2  N   UNL     1      -0.799  -0.086  -0.065  0.00  0.00    +0.000 N 
ATOM      3  C   UNL     1      -0.105   1.041  -0.455  0.00  0.00    +0.000 A 
ATOM      4  C   UNL     1       1.221   1.106  -0.341  0.00  0.00    +0.000 A 
ATOM      5  C   UNL     1       1.797  -0.102   0.220  0.00  0.00    +0.000 A 
ATOM      6  N   UNL     1       1.217  -1.169   0.610  0.00  0.00    +0.000 NA
ATOM      7  C   UNL     1      -0.155  -1.204   0.493  0.00  0.00    +0.000 A 
ATOM      8  O   UNL     1      -0.788  -2.188   0.869  0.00  0.00    +0.000 OA
ENDROOT
BRANCH   5   9
ATOM      9  O   UNL     1       3.129  -0.018   0.314  0.00  0.00    +0.000 OA
ATOM     10  H   UNL     1       3.444  -0.856   0.695  0.00  0.00    +0.000 HD
ENDBRANCH   5   9
TORSDOF 1
