REMARK  Name = 
REMARK  5 active torsions:
REMARK  status: ('A' for Active; 'I' for Inactive)
REMARK    1  A    between atoms: C_1  and  C_2
REMARK    2  A    between atoms: C_6  and  C_7
REMARK    3  A    between atoms: C_8  and  C_9
REMARK    4  A    between atoms: C_9  and  N_10
REMARK    5  A    between atoms: C_11  and  C_12
REMARK                            x       y       z     vdW  Elec       q    Type
REMARK                         _______ _______ _______ _____ _____    ______ ____
ROOT
ATOM      1  C   UNL     1       4.767   0.359   0.256  0.00  0.00    +0.000 C 
ATOM      2  C   UNL     1       3.323   0.037   0.021  0.00  0.00    +0.000 A 
ATOM      3  C   UNL     1       2.941  -1.196  -0.497  0.00  0.00    +0.000 A 
ATOM      4  C   UNL     1       1.587  -1.486  -0.677  0.00  0.00    +0.000 A 
ATOM      5  C   UNL     1       0.574  -0.557  -0.331  0.00  0.00    +0.000 A 
ATOM      6  C   UNL     1      -0.824  -0.796  -0.487  0.00  0.00    +0.000 A 
ATOM      7  C   UNL     1      -1.281  -2.124  -1.048  0.00  0.00    +0.000 C 
ATOM      8  C   UNL     1      -1.746   0.223  -0.144  0.00  0.00    +0.000 A 
ATOM      9  C   UNL     1      -1.228   1.414   0.387  0.00  0.00    +0.000 A 
ATOM     10  C   UNL     1      -2.106   2.559   0.808  0.00  0.00    +0.000 C 
ATOM     11  N   UNL     1       0.098   1.634   0.554  0.00  0.00    +0.000 NA
ATOM     12  C   UNL     1       0.971   0.685   0.201  0.00  0.00    +0.000 A 
ATOM     13  C   UNL     1       2.324   0.953   0.373  0.00  0.00    +0.000 A 
ENDROOT
BRANCH   8  14
ATOM     14  C   UNL     1      -3.239   0.047  -0.304  0.00  0.00    +0.000 C 
BRANCH  14  15
ATOM     15  N   UNL     1      -3.834  -0.631   0.843  0.00  0.00    +0.000 NA
ATOM     16  H   UNL     1      -3.635  -0.095   1.687  0.00  0.00    +0.000 HD
ATOM     17  H   UNL     1      -3.372  -1.529   0.978  0.00  0.00    +0.000 HD
ENDBRANCH  14  15
ENDBRANCH   8  14
TORSDOF 2
