REMARK  Name = 
REMARK  0 active torsions:
REMARK  status: ('A' for Active; 'I' for Inactive)
REMARK                            x       y       z     vdW  Elec       q    Type
REMARK                         _______ _______ _______ _____ _____    ______ ____
ROOT
ATOM      1  O   UNL     1      -3.198   1.860  -0.181  0.00  0.00    +0.000 OA
ATOM      2  C   UNL     1      -2.198   1.149  -0.208  0.00  0.00    +0.000 C 
ATOM      3  C   UNL     1      -2.272  -0.352  -0.280  0.00  0.00    +0.000 C 
ATOM      4  C   UNL     1      -1.234  -0.994   0.619  0.00  0.00    +0.000 C 
ATOM      5  C   UNL     1       0.115  -0.449   0.274  0.00  0.00    +0.000 A 
ATOM      6  C   UNL     1       1.281  -1.206   0.416  0.00  0.00    +0.000 A 
ATOM      7  C   UNL     1       2.522  -0.643   0.106  0.00  0.00    +0.000 A 
ATOM      8  C   UNL     1       2.606   0.679  -0.335  0.00  0.00    +0.000 A 
ATOM      9  C   UNL     1       1.450   1.445  -0.465  0.00  0.00    +0.000 A 
ATOM     10  C   UNL     1       0.218   0.872  -0.160  0.00  0.00    +0.000 A 
ATOM     11  O   UNL     1      -0.920   1.692  -0.270  0.00  0.00    +0.000 OA
ENDROOT
TORSDOF 0
