REMARK  Name = 
REMARK  5 active torsions:
REMARK  status: ('A' for Active; 'I' for Inactive)
REMARK    1  A    between atoms: C_1  and  C_2
REMARK    2  A    between atoms: C_6  and  C_7
REMARK    3  A    between atoms: C_8  and  C_9
REMARK    4  A    between atoms: C_9  and  O_10
REMARK    5  A    between atoms: C_12  and  C_13
REMARK                            x       y       z     vdW  Elec       q    Type
REMARK                         _______ _______ _______ _____ _____    ______ ____
ROOT
ATOM      1  C   UNL     1      -4.593  -0.063   0.265  0.00  0.00    +0.000 C 
ATOM      2  C   UNL     1      -3.123   0.212   0.159  0.00  0.00    +0.000 A 
ATOM      3  C   UNL     1      -2.654   1.501  -0.075  0.00  0.00    +0.000 A 
ATOM      4  C   UNL     1      -1.283   1.731  -0.204  0.00  0.00    +0.000 A 
ATOM      5  C   UNL     1      -0.343   0.676  -0.114  0.00  0.00    +0.000 A 
ATOM      6  C   UNL     1       1.063   0.850  -0.241  0.00  0.00    +0.000 A 
ATOM      7  C   UNL     1       1.641   2.219  -0.504  0.00  0.00    +0.000 C 
ATOM      8  C   UNL     1       1.894  -0.277  -0.086  0.00  0.00    +0.000 A 
ATOM      9  C   UNL     1       1.316  -1.529   0.127  0.00  0.00    +0.000 A 
ATOM     10  C   UNL     1       2.136  -2.780   0.272  0.00  0.00    +0.000 C 
ATOM     11  N   UNL     1      -0.025  -1.700   0.224  0.00  0.00    +0.000 NA
ATOM     12  C   UNL     1      -0.829  -0.631   0.116  0.00  0.00    +0.000 A 
ATOM     13  C   UNL     1      -2.197  -0.836   0.239  0.00  0.00    +0.000 A 
ENDROOT
BRANCH   8  14
ATOM     14  C   UNL     1       3.349  -0.164  -0.148  0.00  0.00    +0.000 C 
ATOM     15  S   UNL     1       4.436   0.168   1.051  0.00  0.00    +0.000 S 
BRANCH  14  16
ATOM     16  O   UNL     1       3.815  -0.362  -1.392  0.00  0.00    +0.000 OA
ATOM     17  H   UNL     1       4.783  -0.270  -1.379  0.00  0.00    +0.000 HD
ENDBRANCH  14  16
ENDBRANCH   8  14
TORSDOF 2
