REMARK  Name = 
REMARK  7 active torsions:
REMARK  status: ('A' for Active; 'I' for Inactive)
REMARK    1  A    between atoms: C_1  and  C_2
REMARK    2  A    between atoms: C_2  and  C_3
REMARK    3  A    between atoms: C_2  and  C_4
REMARK    4  A    between atoms: C_4  and  C_5
REMARK    5  A    between atoms: C_8  and  C_9
REMARK    6  A    between atoms: C_9  and  C_10
REMARK    7  A    between atoms: C_9  and  C_11
REMARK                            x       y       z     vdW  Elec       q    Type
REMARK                         _______ _______ _______ _____ _____    ______ ____
ROOT
ATOM      1  C   UNL     1      -0.957   0.490  -0.009  0.00  0.00    +0.000 A 
ATOM      2  C   UNL     1      -0.188   0.465   1.159  0.00  0.00    +0.000 A 
ATOM      3  C   UNL     1       1.167   0.121   1.116  0.00  0.00    +0.000 A 
ATOM      4  C   UNL     1       1.785  -0.208  -0.099  0.00  0.00    +0.000 A 
ATOM      5  C   UNL     1       1.007  -0.179  -1.268  0.00  0.00    +0.000 A 
ATOM      6  C   UNL     1      -0.346   0.165  -1.224  0.00  0.00    +0.000 A 
ENDROOT
BRANCH   4   7
ATOM      7  C   UNL     1       3.261  -0.571  -0.216  0.00  0.00    +0.000 C 
ATOM      8  C   UNL     1       3.967  -0.915   1.098  0.00  0.00    +0.000 C 
BRANCH   7   9
ATOM      9  C   UNL     1       4.053   0.518  -0.940  0.00  0.00    +0.000 C 
ATOM     10  N   UNL     1       4.033   1.764  -0.378  0.00  0.00    +0.000 N 
ATOM     11  O   UNL     1       4.715   0.305  -1.952  0.00  0.00    +0.000 OA
ATOM     12  H   UNL     1       3.241   2.038   0.189  0.00  0.00    +0.000 HD
ATOM     13  H   UNL     1       4.465   2.493  -0.932  0.00  0.00    +0.000 HD
ENDBRANCH   7   9
ENDBRANCH   4   7
BRANCH   1  14
ATOM     14  C   UNL     1      -2.422   0.855   0.040  0.00  0.00    +0.000 C 
BRANCH  14  16
ATOM     15  C   UNL     1      -3.294  -1.347   0.978  0.00  0.00    +0.000 C 
ATOM     16  C   UNL     1      -3.369  -0.342  -0.174  0.00  0.00    +0.000 C 
ATOM     17  C   UNL     1      -4.808   0.157  -0.330  0.00  0.00    +0.000 C 
ENDBRANCH  14  16
ENDBRANCH   1  14
TORSDOF 4
