REMARK  Name = 
REMARK  0 active torsions:
REMARK  status: ('A' for Active; 'I' for Inactive)
REMARK                            x       y       z     vdW  Elec       q    Type
REMARK                         _______ _______ _______ _____ _____    ______ ____
ROOT
ATOM      1  S   UNL     1       3.866   1.332   0.072  0.00  0.00    +0.000 S 
ATOM      2  C   UNL     1       2.379   0.590   0.047  0.00  0.00    +0.000 C 
ATOM      3  N   UNL     1       2.272  -0.745  -0.171  0.00  0.00    +0.000 N 
ATOM      4  C   UNL     1       1.052  -1.497   0.011  0.00  0.00    +0.000 C 
ATOM      5  C   UNL     1      -0.176  -0.641   0.017  0.00  0.00    +0.000 A 
ATOM      6  C   UNL     1      -1.456  -1.204  -0.049  0.00  0.00    +0.000 A 
ATOM      7  C   UNL     1      -2.586  -0.386   0.017  0.00  0.00    +0.000 A 
ATOM      8  C   UNL     1      -2.443   0.994   0.159  0.00  0.00    +0.000 A 
ATOM      9  C   UNL     1      -1.170   1.562   0.232  0.00  0.00    +0.000 A 
ATOM     10  C   UNL     1      -0.045   0.741   0.157  0.00  0.00    +0.000 A 
ATOM     11  N   UNL     1       1.234   1.301   0.218  0.00  0.00    +0.000 N 
ATOM     12  H   UNL     1       3.145  -1.250  -0.252  0.00  0.00    +0.000 HD
ATOM     13  H   UNL     1       1.334   2.302   0.335  0.00  0.00    +0.000 HD
ENDROOT
TORSDOF 0
