REMARK  Name = 
REMARK  0 active torsions:
REMARK  status: ('A' for Active; 'I' for Inactive)
REMARK                            x       y       z     vdW  Elec       q    Type
REMARK                         _______ _______ _______ _____ _____    ______ ____
ROOT
ATOM      1  N   UNL     1      -2.203  -1.338   0.185  0.00  0.00    +0.000 N 
ATOM      2  C   UNL     1      -1.300  -0.283   0.146  0.00  0.00    +0.000 A 
ATOM      3  N   UNL     1      -1.762   0.965   0.394  0.00  0.00    +0.000 NA
ATOM      4  C   UNL     1      -0.886   1.994   0.350  0.00  0.00    +0.000 A 
ATOM      5  N   UNL     1       0.440   1.959   0.100  0.00  0.00    +0.000 NA
ATOM      6  C   UNL     1       0.841   0.699  -0.121  0.00  0.00    +0.000 A 
ATOM      7  N   UNL     1       2.108   0.276  -0.398  0.00  0.00    +0.000 N 
ATOM      8  C   UNL     1       2.067  -1.085  -0.538  0.00  0.00    +0.000 A 
ATOM      9  N   UNL     1       0.851  -1.561  -0.370  0.00  0.00    +0.000 NA
ATOM     10  C   UNL     1       0.070  -0.450  -0.117  0.00  0.00    +0.000 A 
ATOM     11  H   UNL     1      -1.763  -2.239   0.336  0.00  0.00    +0.000 HD
ATOM     12  H   UNL     1      -3.024  -1.116   0.731  0.00  0.00    +0.000 HD
ATOM     13  H   UNL     1       2.917   0.872  -0.478  0.00  0.00    +0.000 HD
ENDROOT
TORSDOF 0
