REMARK  Name = 
REMARK  1 active torsions:
REMARK  status: ('A' for Active; 'I' for Inactive)
REMARK    1  A    between atoms: C_1  and  C_2
REMARK                            x       y       z     vdW  Elec       q    Type
REMARK                         _______ _______ _______ _____ _____    ______ ____
ROOT
ATOM      1  C   UNL     1       2.218   0.199   0.004  0.00  0.00    +0.000 C 
ATOM      2  C   UNL     1       0.727   0.123   0.023  0.00  0.00    +0.000 A 
ATOM      3  C   UNL     1      -0.079   1.115   0.422  0.00  0.00    +0.000 A 
ATOM      4  N   UNL     1      -1.438   0.975   0.413  0.00  0.00    +0.000 N 
ATOM      5  C   UNL     1      -2.081  -0.162   0.005  0.00  0.00    +0.000 A 
ATOM      6  O   UNL     1      -3.304  -0.253   0.010  0.00  0.00    +0.000 OA
ATOM      7  N   UNL     1      -1.271  -1.181  -0.404  0.00  0.00    +0.000 N 
ATOM      8  C   UNL     1       0.095  -1.144  -0.434  0.00  0.00    +0.000 A 
ATOM      9  O   UNL     1       0.764  -2.099  -0.814  0.00  0.00    +0.000 OA
ATOM     10  H   UNL     1      -2.038   1.733   0.717  0.00  0.00    +0.000 HD
ATOM     11  H   UNL     1      -1.718  -2.030  -0.710  0.00  0.00    +0.000 HD
ENDROOT
TORSDOF 0
