REMARK  Name = 
REMARK  0 active torsions:
REMARK  status: ('A' for Active; 'I' for Inactive)
REMARK                            x       y       z     vdW  Elec       q    Type
REMARK                         _______ _______ _______ _____ _____    ______ ____
ROOT
ATOM      1  O   UNL     1       0.213  -1.998   1.619  0.00  0.00    +0.000 OA
ATOM      2  C   UNL     1       0.116  -1.086   0.804  0.00  0.00    +0.000 A 
ATOM      3  C   UNL     1       1.316  -0.571   0.097  0.00  0.00    +0.000 A 
ATOM      4  C   UNL     1       2.574  -1.131   0.345  0.00  0.00    +0.000 A 
ATOM      5  C   UNL     1       3.693  -0.634  -0.322  0.00  0.00    +0.000 A 
ATOM      6  C   UNL     1       3.554   0.420  -1.226  0.00  0.00    +0.000 A 
ATOM      7  C   UNL     1       2.295   0.978  -1.471  0.00  0.00    +0.000 A 
ATOM      8  C   UNL     1       1.161   0.475  -0.827  0.00  0.00    +0.000 A 
ATOM      9  N   UNL     1      -0.098   1.064  -1.025  0.00  0.00    +0.000 N 
ATOM     10  C   UNL     1      -1.271   0.564  -0.438  0.00  0.00    +0.000 A 
ATOM     11  C   UNL     1      -2.511   1.153  -0.702  0.00  0.00    +0.000 A 
ATOM     12  C   UNL     1      -3.667   0.684  -0.071  0.00  0.00    +0.000 A 
ATOM     13  C   UNL     1      -3.592  -0.368   0.843  0.00  0.00    +0.000 A 
ATOM     14  C   UNL     1      -2.359  -0.951   1.134  0.00  0.00    +0.000 A 
ATOM     15  C   UNL     1      -1.204  -0.479   0.500  0.00  0.00    +0.000 A 
ATOM     16  H   UNL     1      -0.210   1.632  -1.855  0.00  0.00    +0.000 HD
ENDROOT
TORSDOF 0
