REMARK  Name = 
REMARK  6 active torsions:
REMARK  status: ('A' for Active; 'I' for Inactive)
REMARK    1  A    between atoms: C_1  and  C_2
REMARK    2  A    between atoms: C_7  and  N_8
REMARK    3  A    between atoms: N_8  and  C_9
REMARK    4  A    between atoms: C_9  and  C_11
REMARK    5  A    between atoms: C_11  and  C_12
REMARK    6  A    between atoms: C_11  and  O_13
REMARK                            x       y       z     vdW  Elec       q    Type
REMARK                         _______ _______ _______ _____ _____    ______ ____
ROOT
ATOM      1  N   UNL     1       0.544   0.123  -0.189  0.00  0.00    +0.000 N 
ATOM      2  H   UNL     1       0.808  -0.850  -0.039  0.00  0.00    +0.000 HD
ENDROOT
BRANCH   1   9
ATOM      3  C   UNL     1      -1.236  -2.150  -0.049  0.00  0.00    +0.000 C 
ATOM      4  C   UNL     1      -1.726  -0.725  -0.048  0.00  0.00    +0.000 A 
ATOM      5  C   UNL     1      -3.114  -0.506   0.030  0.00  0.00    +0.000 A 
ATOM      6  C   UNL     1      -3.635   0.784   0.034  0.00  0.00    +0.000 A 
ATOM      7  C   UNL     1      -2.772   1.869  -0.030  0.00  0.00    +0.000 A 
ATOM      8  C   UNL     1      -1.390   1.668  -0.106  0.00  0.00    +0.000 A 
ATOM      9  C   UNL     1      -0.846   0.381  -0.131  0.00  0.00    +0.000 A 
ENDBRANCH   1   9
BRANCH   1  10
ATOM     10  C   UNL     1       1.650   0.906  -0.499  0.00  0.00    +0.000 C 
ATOM     11  S   UNL     1       1.737   2.464  -1.102  0.00  0.00    +0.000 S 
BRANCH  10  12
ATOM     12  C   UNL     1       2.964   0.130  -0.255  0.00  0.00    +0.000 C 
ATOM     13  C   UNL     1       3.296   0.083   1.231  0.00  0.00    +0.000 C 
BRANCH  12  14
ATOM     14  O   UNL     1       2.788  -1.218  -0.705  0.00  0.00    +0.000 OA
ATOM     15  H   UNL     1       2.773  -1.180  -1.680  0.00  0.00    +0.000 HD
ENDBRANCH  12  14
ENDBRANCH  10  12
ENDBRANCH   1  10
TORSDOF 4
