REMARK  Name = 
REMARK  5 active torsions:
REMARK  status: ('A' for Active; 'I' for Inactive)
REMARK    1  A    between atoms: C_1  and  C_2
REMARK    2  A    between atoms: C_5  and  C_6
REMARK    3  A    between atoms: C_6  and  C_7
REMARK    4  A    between atoms: C_6  and  C_8
REMARK    5  A    between atoms: C_6  and  O_9
REMARK                            x       y       z     vdW  Elec       q    Type
REMARK                         _______ _______ _______ _____ _____    ______ ____
ROOT
ATOM      1  C   UNL     1       3.786  -0.252   0.896  0.00  0.00    +0.000 C 
ATOM      2  C   UNL     1       2.312  -0.209   0.613  0.00  0.00    +0.000 C 
ATOM      3  C   UNL     1       1.441  -1.024   1.232  0.00  0.00    +0.000 C 
ATOM      4  C   UNL     1      -0.036  -1.037   0.953  0.00  0.00    +0.000 C 
ATOM      5  C   UNL     1      -0.418  -0.302  -0.352  0.00  0.00    +0.000 C 
ATOM      6  C   UNL     1       0.347   1.030  -0.430  0.00  0.00    +0.000 C 
ATOM      7  C   UNL     1       1.864   0.805  -0.409  0.00  0.00    +0.000 C 
ENDROOT
BRANCH   5   8
ATOM      8  C   UNL     1      -1.958  -0.166  -0.539  0.00  0.00    +0.000 C 
ATOM      9  C   UNL     1      -2.633   0.739   0.496  0.00  0.00    +0.000 C 
ATOM     10  C   UNL     1      -2.314   0.330  -1.947  0.00  0.00    +0.000 C 
BRANCH   8  11
ATOM     11  O   UNL     1      -2.549  -1.465  -0.395  0.00  0.00    +0.000 OA
ATOM     12  H   UNL     1      -2.174  -2.042  -1.083  0.00  0.00    +0.000 HD
ENDBRANCH   8  11
ENDBRANCH   5   8
TORSDOF 2
