REMARK  Name = 
REMARK  2 active torsions:
REMARK  status: ('A' for Active; 'I' for Inactive)
REMARK    1  A    between atoms: C_1  and  C_2
REMARK    2  A    between atoms: C_5  and  C_6
REMARK                            x       y       z     vdW  Elec       q    Type
REMARK                         _______ _______ _______ _____ _____    ______ ____
ROOT
ATOM      1  C   UNL     1       3.261   0.030   0.293  0.00  0.00    +0.000 C 
ATOM      2  C   UNL     1       1.770  -0.002   0.177  0.00  0.00    +0.000 A 
ATOM      3  N   UNL     1       1.063   0.883   0.909  0.00  0.00    +0.000 NA
ATOM      4  C   UNL     1      -0.284   0.814   0.804  0.00  0.00    +0.000 A 
ATOM      5  C   UNL     1      -0.944  -0.108   0.025  0.00  0.00    +0.000 A 
ATOM      6  C   UNL     1      -0.129  -0.963  -0.685  0.00  0.00    +0.000 A 
ATOM      7  N   UNL     1       1.223  -0.939  -0.621  0.00  0.00    +0.000 NA
ENDROOT
BRANCH   5   8
ATOM      8  C   UNL     1      -2.407  -0.203  -0.101  0.00  0.00    +0.000 C 
ATOM      9  N   UNL     1      -3.182   0.410   0.846  0.00  0.00    +0.000 N 
ATOM     10  O   UNL     1      -2.922  -0.834  -1.014  0.00  0.00    +0.000 OA
ATOM     11  H   UNL     1      -2.836   0.723   1.742  0.00  0.00    +0.000 HD
ATOM     12  H   UNL     1      -4.178   0.235   0.778  0.00  0.00    +0.000 HD
ENDBRANCH   5   8
TORSDOF 1
