REMARK  Name = 
REMARK  3 active torsions:
REMARK  status: ('A' for Active; 'I' for Inactive)
REMARK    1  A    between atoms: S_2  and  N_4
REMARK    2  A    between atoms: S_2  and  C_11
REMARK    3  A    between atoms: C_14  and  O_15
REMARK                            x       y       z     vdW  Elec       q    Type
REMARK                         _______ _______ _______ _____ _____    ______ ____
ROOT
ATOM      1  O   UNL     1      -0.941  -2.541   0.372  0.00  0.00    +0.000 OA
ATOM      2  S   UNL     1      -0.165  -1.699   1.256  0.00  0.00    +0.000 S 
ATOM      3  O   UNL     1       0.430  -2.260   2.454  0.00  0.00    +0.000 OA
ENDROOT
BRANCH   2   4
ATOM      4  N   UNL     1      -1.076  -0.409   1.767  0.00  0.00    +0.000 N 
ATOM      5  C   UNL     1      -1.986   0.127   0.864  0.00  0.00    +0.000 A 
ATOM      6  N   UNL     1      -1.590   0.383  -0.383  0.00  0.00    +0.000 NA
ATOM      7  C   UNL     1      -2.478   1.040  -1.150  0.00  0.00    +0.000 A 
ATOM      8  C   UNL     1      -3.701   1.473  -0.692  0.00  0.00    +0.000 A 
ATOM      9  C   UNL     1      -3.970   1.198   0.629  0.00  0.00    +0.000 A 
ATOM     10  N   UNL     1      -3.118   0.543   1.440  0.00  0.00    +0.000 NA
ATOM     11  H   UNL     1      -1.462  -0.527   2.697  0.00  0.00    +0.000 HD
ENDBRANCH   2   4
BRANCH   2  12
ATOM     12  C   UNL     1       1.164  -0.949   0.346  0.00  0.00    +0.000 A 
ATOM     13  C   UNL     1       1.235  -1.100  -1.042  0.00  0.00    +0.000 A 
ATOM     14  C   UNL     1       2.300  -0.529  -1.740  0.00  0.00    +0.000 A 
ATOM     15  C   UNL     1       3.282   0.173  -1.047  0.00  0.00    +0.000 A 
ATOM     16  C   UNL     1       3.224   0.316   0.338  0.00  0.00    +0.000 A 
ATOM     17  C   UNL     1       2.160  -0.252   1.041  0.00  0.00    +0.000 A 
BRANCH  15  18
ATOM     18  O   UNL     1       4.304   0.712  -1.772  0.00  0.00    +0.000 OA
ATOM     19  H   UNL     1       4.920   1.151  -1.163  0.00  0.00    +0.000 HD
ENDBRANCH  15  18
ENDBRANCH   2  12
TORSDOF 3
