REMARK  Name = 
REMARK  3 active torsions:
REMARK  status: ('A' for Active; 'I' for Inactive)
REMARK    1  A    between atoms: C_1  and  C_2
REMARK    2  A    between atoms: C_5  and  C_6
REMARK    3  A    between atoms: C_6  and  O_8
REMARK                            x       y       z     vdW  Elec       q    Type
REMARK                         _______ _______ _______ _____ _____    ______ ____
ROOT
ATOM      1  C   UNL     1      -3.058   0.288  -0.038  0.00  0.00    +0.000 C 
ATOM      2  C   UNL     1      -1.571   0.126   0.019  0.00  0.00    +0.000 A 
ATOM      3  N   UNL     1      -0.811   1.157  -0.400  0.00  0.00    +0.000 NA
ATOM      4  C   UNL     1       0.529   0.974  -0.365  0.00  0.00    +0.000 A 
ATOM      5  C   UNL     1       1.125  -0.191   0.061  0.00  0.00    +0.000 A 
ATOM      6  C   UNL     1       0.261  -1.186   0.460  0.00  0.00    +0.000 A 
ATOM      7  N   UNL     1      -1.085  -1.057   0.445  0.00  0.00    +0.000 NA
ENDROOT
BRANCH   5   8
ATOM      8  C   UNL     1       2.573  -0.406   0.105  0.00  0.00    +0.000 C 
ATOM      9  O   UNL     1       3.126  -1.424   0.475  0.00  0.00    +0.000 OA
BRANCH   8  10
ATOM     10  O   UNL     1       3.269   0.663  -0.317  0.00  0.00    +0.000 OA
ATOM     11  H   UNL     1       4.209   0.391  -0.239  0.00  0.00    +0.000 HD
ENDBRANCH   8  10
ENDBRANCH   5   8
TORSDOF 2
