REMARK  Name = 
REMARK  0 active torsions:
REMARK  status: ('A' for Active; 'I' for Inactive)
REMARK                            x       y       z     vdW  Elec       q    Type
REMARK                         _______ _______ _______ _____ _____    ______ ____
ROOT
ATOM      1  O   UNL     1       3.646   0.300   0.018  0.00  0.00    +0.000 OA
ATOM      2  C   UNL     1       2.432   0.201   0.012  0.00  0.00    +0.000 A 
ATOM      3  N   UNL     1       1.690  -0.984  -0.103  0.00  0.00    +0.000 N 
ATOM      4  C   UNL     1       0.336  -0.668  -0.068  0.00  0.00    +0.000 A 
ATOM      5  C   UNL     1      -0.762  -1.491  -0.146  0.00  0.00    +0.000 A 
ATOM      6  C   UNL     1      -2.015  -0.872  -0.080  0.00  0.00    +0.000 A 
ATOM      7  C   UNL     1      -2.131   0.530   0.059  0.00  0.00    +0.000 A 
ATOM      8  C   UNL     1      -0.997   1.346   0.137  0.00  0.00    +0.000 A 
ATOM      9  C   UNL     1       0.222   0.714   0.070  0.00  0.00    +0.000 A 
ATOM     10  N   UNL     1       1.505   1.247   0.119  0.00  0.00    +0.000 N 
ATOM     11  H   UNL     1       2.103  -1.897  -0.195  0.00  0.00    +0.000 HD
ATOM     12  H   UNL     1       1.762   2.216   0.215  0.00  0.00    +0.000 HD
ENDROOT
TORSDOF 0
