REMARK  Name = 
REMARK  6 active torsions:
REMARK  status: ('A' for Active; 'I' for Inactive)
REMARK    1  A    between atoms: C_1  and  C_2
REMARK    2  A    between atoms: C_7  and  O_8
REMARK    3  A    between atoms: O_8  and  C_9
REMARK    4  A    between atoms: C_9  and  C_11
REMARK    5  A    between atoms: C_11  and  C_12
REMARK    6  A    between atoms: C_11  and  O_13
REMARK                            x       y       z     vdW  Elec       q    Type
REMARK                         _______ _______ _______ _____ _____    ______ ____
ROOT
ATOM      1  C   UNL     1      -1.571  -1.669   0.300  0.00  0.00    +0.000 C 
ATOM      2  C   UNL     1      -1.744  -0.294  -0.276  0.00  0.00    +0.000 A 
ATOM      3  C   UNL     1      -3.013   0.294  -0.340  0.00  0.00    +0.000 A 
ATOM      4  C   UNL     1      -3.176   1.578  -0.869  0.00  0.00    +0.000 A 
ATOM      5  C   UNL     1      -2.073   2.292  -1.338  0.00  0.00    +0.000 A 
ATOM      6  C   UNL     1      -0.802   1.726  -1.275  0.00  0.00    +0.000 A 
ATOM      7  C   UNL     1      -0.648   0.451  -0.728  0.00  0.00    +0.000 A 
ENDROOT
BRANCH   7   8
ATOM      8  O   UNL     1       0.629  -0.118  -0.711  0.00  0.00    +0.000 OA
BRANCH   8   9
ATOM      9  C   UNL     1       1.377   0.227   0.416  0.00  0.00    +0.000 C 
ATOM     10  O   UNL     1       1.042   0.999   1.305  0.00  0.00    +0.000 OA
BRANCH   9  11
ATOM     11  C   UNL     1       2.736  -0.484   0.323  0.00  0.00    +0.000 C 
ATOM     12  C   UNL     1       3.311  -0.721   1.711  0.00  0.00    +0.000 C 
BRANCH  11  13
ATOM     13  O   UNL     1       2.687  -1.746  -0.338  0.00  0.00    +0.000 OA
ATOM     14  H   UNL     1       2.252  -1.601  -1.198  0.00  0.00    +0.000 HD
ENDBRANCH  11  13
ENDBRANCH   9  11
ENDBRANCH   8   9
ENDBRANCH   7   8
TORSDOF 4
