REMARK  Name = 
REMARK  1 active torsions:
REMARK  status: ('A' for Active; 'I' for Inactive)
REMARK    1  A    between atoms: C_1  and  C_2
REMARK                            x       y       z     vdW  Elec       q    Type
REMARK                         _______ _______ _______ _____ _____    ______ ____
ROOT
ATOM      1  C   UNL     1       2.235   0.204  -0.194  0.00  0.00    +0.000 C 
ATOM      2  C   UNL     1       0.752   0.126  -0.044  0.00  0.00    +0.000 A 
ATOM      3  C   UNL     1      -0.017   1.116   0.428  0.00  0.00    +0.000 A 
ATOM      4  N   UNL     1      -1.374   0.978   0.540  0.00  0.00    +0.000 N 
ATOM      5  C   UNL     1      -2.039  -0.161   0.187  0.00  0.00    +0.000 A 
ATOM      6  S   UNL     1      -3.689  -0.290   0.339  0.00  0.00    +0.000 S 
ATOM      7  N   UNL     1      -1.275  -1.183  -0.296  0.00  0.00    +0.000 N 
ATOM      8  C   UNL     1       0.087  -1.143  -0.447  0.00  0.00    +0.000 A 
ATOM      9  O   UNL     1       0.720  -2.097  -0.887  0.00  0.00    +0.000 OA
ATOM     10  H   UNL     1      -1.931   1.747   0.902  0.00  0.00    +0.000 HD
ATOM     11  H   UNL     1      -1.732  -2.041  -0.567  0.00  0.00    +0.000 HD
ENDROOT
TORSDOF 0
