REMARK  Name = 
REMARK  5 active torsions:
REMARK  status: ('A' for Active; 'I' for Inactive)
REMARK    1  A    between atoms: C_2  and  O_3
REMARK    2  A    between atoms: C_2  and  C_4
REMARK    3  A    between atoms: C_4  and  C_5
REMARK    4  A    between atoms: C_8  and  O_9
REMARK    5  A    between atoms: C_10  and  O_11
REMARK                            x       y       z     vdW  Elec       q    Type
REMARK                         _______ _______ _______ _____ _____    ______ ____
ROOT
ATOM      1  C   UNL     1       0.505  -0.011  -0.385  0.00  0.00    +0.000 A 
ATOM      2  C   UNL     1      -0.277  -1.178  -0.451  0.00  0.00    +0.000 A 
ATOM      3  C   UNL     1      -1.672  -1.113  -0.367  0.00  0.00    +0.000 A 
ATOM      4  C   UNL     1      -2.284   0.125  -0.217  0.00  0.00    +0.000 A 
ATOM      5  C   UNL     1      -1.517   1.284  -0.149  0.00  0.00    +0.000 A 
ATOM      6  C   UNL     1      -0.132   1.229  -0.228  0.00  0.00    +0.000 A 
ENDROOT
BRANCH   4   7
ATOM      7  O   UNL     1      -3.642   0.254  -0.128  0.00  0.00    +0.000 OA
ATOM      8  H   UNL     1      -4.031  -0.637  -0.162  0.00  0.00    +0.000 HD
ENDBRANCH   4   7
BRANCH   5   9
ATOM      9  O   UNL     1      -2.127   2.497  -0.001  0.00  0.00    +0.000 OA
ATOM     10  H   UNL     1      -3.081   2.285   0.038  0.00  0.00    +0.000 HD
ENDBRANCH   5   9
BRANCH   1  11
ATOM     11  C   UNL     1       2.011  -0.091  -0.467  0.00  0.00    +0.000 C 
BRANCH  11  13
ATOM     12  O   UNL     1       2.157  -1.085   1.778  0.00  0.00    +0.000 OA
ATOM     13  C   UNL     1       2.672  -0.560   0.806  0.00  0.00    +0.000 C 
BRANCH  13  14
ATOM     14  O   UNL     1       4.010  -0.375   0.774  0.00  0.00    +0.000 OA
ATOM     15  H   UNL     1       4.313  -0.719   1.641  0.00  0.00    +0.000 HD
ENDBRANCH  13  14
ENDBRANCH  11  13
ENDBRANCH   1  11
TORSDOF 5
