REMARK  Name = 
REMARK  14 active torsions:
REMARK  status: ('A' for Active; 'I' for Inactive)
REMARK    1  A    between atoms: CD1_1  and  CG_2
REMARK    2  A    between atoms: CG_2  and  CD2_3
REMARK    3  A    between atoms: CG_2  and  CB_4
REMARK    4  A    between atoms: CB_4  and  CA_5
REMARK    5  A    between atoms: CA_5  and  N_6
REMARK    6  A    between atoms: CA_5  and  C_26
REMARK    7  A    between atoms: N_6  and  CA_7
REMARK    8  A    between atoms: CA_7  and  C_8
REMARK    9  A    between atoms: CA_7  and  C_23
REMARK   10  A    between atoms: C_8  and  C_9
REMARK   11  A    between atoms: N_13  and  C_14
REMARK   12  A    between atoms: C_14  and  C_15
REMARK   13  A    between atoms: C_23  and  OXT_25
REMARK   14  A    between atoms: C_26  and  OXT_28
REMARK                            x       y       z     vdW  Elec       q    Type
REMARK                         _______ _______ _______ _____ _____    ______ ____
ROOT
ATOM      1  CA  UNL     1      -0.064  -1.506  -0.184  0.00  0.00    +0.000 C 
ENDROOT
BRANCH   1   2
ATOM      2  N   UNL     1      -1.010  -1.971   0.866  0.00  0.00    +0.000 NA
ATOM      3  H   UNL     1      -1.036  -2.998   0.838  0.00  0.00    +0.000 HD
BRANCH   2   4
ATOM      4  CA  UNL     1      -2.402  -1.469   0.748  0.00  0.00    +0.000 C 
BRANCH   4   5
ATOM      5  C   UNL     1      -3.079  -1.960  -0.533  0.00  0.00    +0.000 C 
ATOM      6  O   UNL     1      -3.777  -2.955  -0.636  0.00  0.00    +0.000 OA
BRANCH   5   7
ATOM      7  OXT UNL     1      -2.789  -1.228  -1.629  0.00  0.00    +0.000 OA
ATOM      8  HXT UNL     1      -3.280  -1.691  -2.342  0.00  0.00    +0.000 HD
ENDBRANCH   5   7
ENDBRANCH   4   5
BRANCH   4   9
ATOM      9  CB  UNL     1      -2.505   0.053   0.964  0.00  0.00    +0.000 C 
BRANCH   9  11
ATOM     10  CD1 UNL     1      -4.758   0.052   2.175  0.00  0.00    +0.000 C 
ATOM     11  CG  UNL     1      -3.946   0.609   1.004  0.00  0.00    +0.000 C 
ATOM     12  CD2 UNL     1      -3.905   2.136   1.087  0.00  0.00    +0.000 C 
ENDBRANCH   9  11
ENDBRANCH   4   9
ENDBRANCH   2   4
ENDBRANCH   1   2
BRANCH   1  13
ATOM     13  C   UNL     1       0.120  -2.596  -1.241  0.00  0.00    +0.000 C 
ATOM     14  O   UNL     1      -0.222  -3.765  -1.143  0.00  0.00    +0.000 OA
BRANCH  13  15
ATOM     15  OXT UNL     1       0.724  -2.152  -2.364  0.00  0.00    +0.000 OA
ATOM     16  HXT UNL     1       0.780  -2.951  -2.932  0.00  0.00    +0.000 HD
ENDBRANCH  13  15
ENDBRANCH   1  13
BRANCH   1  17
ATOM     17  C   UNL     1       1.312  -1.209   0.439  0.00  0.00    +0.000 C 
BRANCH  17  18
ATOM     18  C   UNL     1       1.336   0.079   1.202  0.00  0.00    +0.000 A 
ATOM     19  C   UNL     1       1.135   0.316   2.549  0.00  0.00    +0.000 A 
ATOM     20  N   UNL     1       1.239   1.651   2.840  0.00  0.00    +0.000 NA
ATOM     21  C   UNL     1       1.494   2.234   1.693  0.00  0.00    +0.000 A 
ATOM     22  N   UNL     1       1.573   1.327   0.668  0.00  0.00    +0.000 N 
BRANCH  22  23
ATOM     23  C   UNL     1       1.793   1.689  -0.726  0.00  0.00    +0.000 C 
BRANCH  23  24
ATOM     24  C   UNL     1       3.139   1.250  -1.250  0.00  0.00    +0.000 A 
ATOM     25  C   UNL     1       4.329   1.508  -0.552  0.00  0.00    +0.000 A 
ATOM     26  C   UNL     1       5.555   1.105  -1.081  0.00  0.00    +0.000 A 
ATOM     27  F   UNL     1       6.678   1.353  -0.395  0.00  0.00    +0.000 F 
ATOM     28  C   UNL     1       5.633   0.455  -2.304  0.00  0.00    +0.000 A 
ATOM     29  C   UNL     1       4.460   0.213  -3.002  0.00  0.00    +0.000 A 
ATOM     30  F   UNL     1       4.513  -0.408  -4.188  0.00  0.00    +0.000 F 
ATOM     31  C   UNL     1       3.223   0.606  -2.495  0.00  0.00    +0.000 A 
ENDBRANCH  23  24
ENDBRANCH  22  23
ENDBRANCH  17  18
ENDBRANCH   1  17
TORSDOF 12
