REMARK  Name = 
REMARK  4 active torsions:
REMARK  status: ('A' for Active; 'I' for Inactive)
REMARK    1  A    between atoms: C_3  and  O_4
REMARK    2  A    between atoms: C_5  and  C_6
REMARK    3  A    between atoms: C_15  and  O_16
REMARK    4  A    between atoms: C_18  and  O_19
REMARK                            x       y       z     vdW  Elec       q    Type
REMARK                         _______ _______ _______ _____ _____    ______ ____
ROOT
ATOM      1  O   UNL     1       1.725  -2.949  -0.222  0.00  0.00    +0.000 OA
ATOM      2  C   UNL     1       1.250  -1.817  -0.162  0.00  0.00    +0.000 A 
ATOM      3  C   UNL     1      -0.213  -1.610  -0.248  0.00  0.00    +0.000 A 
ATOM      4  C   UNL     1      -0.690  -0.354  -0.173  0.00  0.00    +0.000 A 
ATOM      5  O   UNL     1       0.110   0.771  -0.009  0.00  0.00    +0.000 OA
ATOM      6  C   UNL     1       1.471   0.614   0.061  0.00  0.00    +0.000 A 
ATOM      7  C   UNL     1       2.233   1.774   0.208  0.00  0.00    +0.000 A 
ATOM      8  C   UNL     1       3.620   1.670   0.287  0.00  0.00    +0.000 A 
ATOM      9  C   UNL     1       4.252   0.431   0.222  0.00  0.00    +0.000 A 
ATOM     10  C   UNL     1       3.486  -0.722   0.074  0.00  0.00    +0.000 A 
ATOM     11  C   UNL     1       2.094  -0.630  -0.007  0.00  0.00    +0.000 A 
ENDROOT
BRANCH   4  12
ATOM     12  C   UNL     1      -2.131  -0.029  -0.235  0.00  0.00    +0.000 A 
ATOM     13  C   UNL     1      -2.964  -0.555  -1.234  0.00  0.00    +0.000 A 
ATOM     14  C   UNL     1      -4.318  -0.214  -1.288  0.00  0.00    +0.000 A 
ATOM     15  C   UNL     1      -4.856   0.663  -0.349  0.00  0.00    +0.000 A 
ATOM     16  C   UNL     1      -4.041   1.201   0.644  0.00  0.00    +0.000 A 
ATOM     17  C   UNL     1      -2.687   0.860   0.699  0.00  0.00    +0.000 A 
ENDBRANCH   4  12
BRANCH   3  18
ATOM     18  O   UNL     1      -1.001  -2.738  -0.384  0.00  0.00    +0.000 OA
ATOM     19  H   UNL     1      -0.377  -3.493  -0.379  0.00  0.00    +0.000 HD
ENDBRANCH   3  18
BRANCH   8  20
ATOM     20  O   UNL     1       4.406   2.775   0.430  0.00  0.00    +0.000 OA
ATOM     21  H   UNL     1       3.845   3.568   0.453  0.00  0.00    +0.000 HD
ENDBRANCH   8  20
BRANCH  10  22
ATOM     22  O   UNL     1       4.160  -1.912   0.016  0.00  0.00    +0.000 OA
ATOM     23  H   UNL     1       3.506  -2.638  -0.084  0.00  0.00    +0.000 HD
ENDBRANCH  10  22
TORSDOF 4
