REMARK  Name = 
REMARK  6 active torsions:
REMARK  status: ('A' for Active; 'I' for Inactive)
REMARK    1  A    between atoms: C_1  and  O_2
REMARK    2  A    between atoms: O_2  and  C_3
REMARK    3  A    between atoms: C_6  and  C_7
REMARK    4  A    between atoms: C_12  and  O_13
REMARK    5  A    between atoms: C_15  and  O_16
REMARK    6  A    between atoms: C_21  and  O_22
REMARK                            x       y       z     vdW  Elec       q    Type
REMARK                         _______ _______ _______ _____ _____    ______ ____
ROOT
ATOM      1  C   UNL     1      -0.673   1.785   1.068  0.00  0.00    +0.000 C 
ATOM      2  C   UNL     1      -1.439   2.505  -0.036  0.00  0.00    +0.000 C 
ATOM      3  C   UNL     1      -1.988   1.496  -1.004  0.00  0.00    +0.000 C 
ATOM      4  O   UNL     1      -2.154   1.738  -2.198  0.00  0.00    +0.000 OA
ATOM      5  C   UNL     1      -2.390   0.193  -0.449  0.00  0.00    +0.000 A 
ATOM      6  C   UNL     1      -3.023  -0.775  -1.236  0.00  0.00    +0.000 A 
ATOM      7  C   UNL     1      -3.438  -1.978  -0.669  0.00  0.00    +0.000 A 
ATOM      8  C   UNL     1      -3.221  -2.199   0.688  0.00  0.00    +0.000 A 
ATOM      9  C   UNL     1      -2.590  -1.243   1.480  0.00  0.00    +0.000 A 
ATOM     10  C   UNL     1      -2.158  -0.048   0.905  0.00  0.00    +0.000 A 
ATOM     11  O   UNL     1      -1.534   0.843   1.740  0.00  0.00    +0.000 OA
ENDROOT
BRANCH   1  15
ATOM     12  C   UNL     1       3.172  -0.077   0.193  0.00  0.00    +0.000 A 
ATOM     13  C   UNL     1       2.517   0.642  -0.802  0.00  0.00    +0.000 A 
ATOM     14  C   UNL     1       1.278   1.249  -0.540  0.00  0.00    +0.000 A 
ATOM     15  C   UNL     1       0.666   1.139   0.720  0.00  0.00    +0.000 A 
ATOM     16  C   UNL     1       1.343   0.420   1.720  0.00  0.00    +0.000 A 
ATOM     17  C   UNL     1       2.571  -0.175   1.450  0.00  0.00    +0.000 A 
BRANCH  12  19
ATOM     18  C   UNL     1       5.004  -0.662  -1.203  0.00  0.00    +0.000 C 
ATOM     19  O   UNL     1       4.379  -0.716   0.075  0.00  0.00    +0.000 OA
ENDBRANCH  12  19
BRANCH  17  20
ATOM     20  O   UNL     1       3.187  -0.867   2.457  0.00  0.00    +0.000 OA
ATOM     21  H   UNL     1       4.013  -1.206   2.060  0.00  0.00    +0.000 HD
ENDBRANCH  17  20
ENDBRANCH   1  15
BRANCH   6  22
ATOM     22  O   UNL     1      -3.277  -0.603  -2.570  0.00  0.00    +0.000 OA
ATOM     23  H   UNL     1      -2.945   0.286  -2.831  0.00  0.00    +0.000 HD
ENDBRANCH   6  22
BRANCH   8  24
ATOM     24  O   UNL     1      -3.619  -3.356   1.289  0.00  0.00    +0.000 OA
ATOM     25  H   UNL     1      -4.025  -3.934   0.621  0.00  0.00    +0.000 HD
ENDBRANCH   8  24
TORSDOF 5
