REMARK  Name = 
REMARK  5 active torsions:
REMARK  status: ('A' for Active; 'I' for Inactive)
REMARK    1  A    between atoms: C_3  and  O_4
REMARK    2  A    between atoms: C_5  and  C_6
REMARK    3  A    between atoms: C_9  and  O_10
REMARK    4  A    between atoms: C_16  and  O_17
REMARK    5  A    between atoms: C_19  and  O_20
REMARK                            x       y       z     vdW  Elec       q    Type
REMARK                         _______ _______ _______ _____ _____    ______ ____
ROOT
ATOM      1  O   UNL     1      -2.272  -2.031  -1.868  0.00  0.00    +0.000 OA
ATOM      2  C   UNL     1      -1.670  -1.235  -1.151  0.00  0.00    +0.000 A 
ATOM      3  C   UNL     1      -0.190  -1.206  -1.137  0.00  0.00    +0.000 A 
ATOM      4  C   UNL     1       0.428  -0.323  -0.332  0.00  0.00    +0.000 A 
ATOM      5  O   UNL     1      -0.239   0.565   0.504  0.00  0.00    +0.000 OA
ATOM      6  C   UNL     1      -1.611   0.572   0.504  0.00  0.00    +0.000 A 
ATOM      7  C   UNL     1      -2.237   1.494   1.345  0.00  0.00    +0.000 A 
ATOM      8  C   UNL     1      -3.628   1.541   1.385  0.00  0.00    +0.000 A 
ATOM      9  C   UNL     1      -4.399   0.685   0.603  0.00  0.00    +0.000 A 
ATOM     10  C   UNL     1      -3.769  -0.232  -0.234  0.00  0.00    +0.000 A 
ATOM     11  C   UNL     1      -2.373  -0.287  -0.284  0.00  0.00    +0.000 A 
ENDROOT
BRANCH   4  12
ATOM     12  C   UNL     1       1.899  -0.213  -0.230  0.00  0.00    +0.000 A 
ATOM     13  C   UNL     1       2.711  -0.114  -1.369  0.00  0.00    +0.000 A 
ATOM     14  C   UNL     1       4.097   0.016  -1.248  0.00  0.00    +0.000 A 
ATOM     15  C   UNL     1       4.678   0.052   0.013  0.00  0.00    +0.000 A 
ATOM     16  C   UNL     1       3.896  -0.036   1.159  0.00  0.00    +0.000 A 
ATOM     17  C   UNL     1       2.509  -0.165   1.035  0.00  0.00    +0.000 A 
BRANCH  15  18
ATOM     18  O   UNL     1       6.033   0.180   0.085  0.00  0.00    +0.000 OA
ATOM     19  H   UNL     1       6.297   0.171   1.019  0.00  0.00    +0.000 HD
ENDBRANCH  15  18
ENDBRANCH   4  12
BRANCH   3  20
ATOM     20  O   UNL     1       0.466  -2.112  -1.951  0.00  0.00    +0.000 OA
ATOM     21  H   UNL     1      -0.243  -2.628  -2.390  0.00  0.00    +0.000 HD
ENDBRANCH   3  20
BRANCH   8  22
ATOM     22  O   UNL     1      -4.284   2.425   2.190  0.00  0.00    +0.000 OA
ATOM     23  H   UNL     1      -3.635   2.969   2.668  0.00  0.00    +0.000 HD
ENDBRANCH   8  22
BRANCH  10  24
ATOM     24  O   UNL     1      -4.576  -1.048  -0.979  0.00  0.00    +0.000 OA
ATOM     25  H   UNL     1      -4.008  -1.642  -1.519  0.00  0.00    +0.000 HD
ENDBRANCH  10  24
TORSDOF 5
