REMARK  Name = 
REMARK  6 active torsions:
REMARK  status: ('A' for Active; 'I' for Inactive)
REMARK    1  A    between atoms: C_3  and  O_4
REMARK    2  A    between atoms: C_5  and  C_6
REMARK    3  A    between atoms: C_9  and  O_10
REMARK    4  A    between atoms: C_11  and  O_12
REMARK    5  A    between atoms: C_17  and  O_18
REMARK    6  A    between atoms: C_20  and  O_21
REMARK                            x       y       z     vdW  Elec       q    Type
REMARK                         _______ _______ _______ _____ _____    ______ ____
ROOT
ATOM      1  O   UNL     1       2.238  -2.742   1.177  0.00  0.00    +0.000 OA
ATOM      2  C   UNL     1       1.698  -1.722   0.756  0.00  0.00    +0.000 A 
ATOM      3  C   UNL     1       0.225  -1.658   0.609  0.00  0.00    +0.000 A 
ATOM      4  C   UNL     1      -0.325  -0.518   0.152  0.00  0.00    +0.000 A 
ATOM      5  O   UNL     1       0.402   0.617  -0.183  0.00  0.00    +0.000 OA
ATOM      6  C   UNL     1       1.770   0.583  -0.074  0.00  0.00    +0.000 A 
ATOM      7  C   UNL     1       2.461   1.738  -0.446  0.00  0.00    +0.000 A 
ATOM      8  C   UNL     1       3.850   1.759  -0.351  0.00  0.00    +0.000 A 
ATOM      9  C   UNL     1       4.555   0.649   0.108  0.00  0.00    +0.000 A 
ATOM     10  C   UNL     1       3.861  -0.500   0.475  0.00  0.00    +0.000 A 
ATOM     11  C   UNL     1       2.466  -0.533   0.383  0.00  0.00    +0.000 A 
ENDROOT
BRANCH   4  12
ATOM     12  C   UNL     1      -1.782  -0.341  -0.024  0.00  0.00    +0.000 A 
ATOM     13  C   UNL     1      -2.550  -1.273  -0.745  0.00  0.00    +0.000 A 
ATOM     14  C   UNL     1      -3.922  -1.081  -0.930  0.00  0.00    +0.000 A 
ATOM     15  C   UNL     1      -4.524   0.047  -0.398  0.00  0.00    +0.000 A 
ATOM     16  C   UNL     1      -3.779   0.982   0.314  0.00  0.00    +0.000 A 
ATOM     17  C   UNL     1      -2.413   0.800   0.502  0.00  0.00    +0.000 A 
BRANCH  15  18
ATOM     18  O   UNL     1      -5.864   0.236  -0.578  0.00  0.00    +0.000 OA
ATOM     19  H   UNL     1      -6.057   1.078  -0.120  0.00  0.00    +0.000 HD
ENDBRANCH  15  18
BRANCH  16  20
ATOM     20  O   UNL     1      -4.439   2.072   0.812  0.00  0.00    +0.000 OA
ATOM     21  H   UNL     1      -3.800   2.617   1.304  0.00  0.00    +0.000 HD
ENDBRANCH  16  20
ENDBRANCH   4  12
BRANCH   3  22
ATOM     22  O   UNL     1      -0.495  -2.780   0.971  0.00  0.00    +0.000 OA
ATOM     23  H   UNL     1       0.170  -3.430   1.280  0.00  0.00    +0.000 HD
ENDBRANCH   3  22
BRANCH   8  24
ATOM     24  O   UNL     1       4.568   2.863  -0.703  0.00  0.00    +0.000 OA
ATOM     25  H   UNL     1       3.965   3.552  -1.026  0.00  0.00    +0.000 HD
ENDBRANCH   8  24
BRANCH  10  26
ATOM     26  O   UNL     1       4.605  -1.560   0.918  0.00  0.00    +0.000 OA
ATOM     27  H   UNL     1       3.997  -2.299   1.143  0.00  0.00    +0.000 HD
ENDBRANCH  10  26
TORSDOF 6
