REMARK  Name = 
REMARK  7 active torsions:
REMARK  status: ('A' for Active; 'I' for Inactive)
REMARK    1  A    between atoms: C_3  and  O_4
REMARK    2  A    between atoms: C_5  and  C_6
REMARK    3  A    between atoms: C_8  and  O_9
REMARK    4  A    between atoms: C_10  and  O_11
REMARK    5  A    between atoms: C_12  and  O_13
REMARK    6  A    between atoms: C_18  and  O_19
REMARK    7  A    between atoms: C_21  and  O_22
REMARK                            x       y       z     vdW  Elec       q    Type
REMARK                         _______ _______ _______ _____ _____    ______ ____
ROOT
ATOM      1  O   UNL     1       2.184  -2.813  -0.978  0.00  0.00    +0.000 OA
ATOM      2  C   UNL     1       1.719  -1.735  -0.612  0.00  0.00    +0.000 A 
ATOM      3  C   UNL     1       0.254  -1.550  -0.496  0.00  0.00    +0.000 A 
ATOM      4  C   UNL     1      -0.213  -0.355  -0.089  0.00  0.00    +0.000 A 
ATOM      5  O   UNL     1       0.601   0.723   0.237  0.00  0.00    +0.000 OA
ATOM      6  C   UNL     1       1.962   0.585   0.133  0.00  0.00    +0.000 A 
ATOM      7  C   UNL     1       2.740   1.694   0.461  0.00  0.00    +0.000 A 
ATOM      8  C   UNL     1       4.127   1.609   0.374  0.00  0.00    +0.000 A 
ATOM      9  C   UNL     1       4.751   0.433  -0.035  0.00  0.00    +0.000 A 
ATOM     10  C   UNL     1       3.968  -0.672  -0.361  0.00  0.00    +0.000 A 
ATOM     11  C   UNL     1       2.574  -0.596  -0.278  0.00  0.00    +0.000 A 
ENDROOT
BRANCH   4  12
ATOM     12  C   UNL     1      -1.653  -0.062   0.084  0.00  0.00    +0.000 A 
ATOM     13  C   UNL     1      -2.600  -0.414  -0.898  0.00  0.00    +0.000 A 
ATOM     14  C   UNL     1      -3.946  -0.106  -0.711  0.00  0.00    +0.000 A 
ATOM     15  C   UNL     1      -4.359   0.560   0.435  0.00  0.00    +0.000 A 
ATOM     16  C   UNL     1      -3.433   0.920   1.403  0.00  0.00    +0.000 A 
ATOM     17  C   UNL     1      -2.087   0.619   1.236  0.00  0.00    +0.000 A 
BRANCH  14  18
ATOM     18  O   UNL     1      -4.900  -0.438  -1.633  0.00  0.00    +0.000 OA
ATOM     19  H   UNL     1      -4.468  -0.934  -2.350  0.00  0.00    +0.000 HD
ENDBRANCH  14  18
BRANCH  15  20
ATOM     20  O   UNL     1      -5.678   0.869   0.625  0.00  0.00    +0.000 OA
ATOM     21  H   UNL     1      -6.122   0.520  -0.175  0.00  0.00    +0.000 HD
ENDBRANCH  15  20
BRANCH  16  22
ATOM     22  O   UNL     1      -3.841   1.577   2.528  0.00  0.00    +0.000 OA
ATOM     23  H   UNL     1      -4.809   1.672   2.420  0.00  0.00    +0.000 HD
ENDBRANCH  16  22
ENDBRANCH   4  12
BRANCH   3  24
ATOM     24  O   UNL     1      -0.543  -2.639  -0.801  0.00  0.00    +0.000 OA
ATOM     25  H   UNL     1       0.081  -3.365  -1.011  0.00  0.00    +0.000 HD
ENDBRANCH   3  24
BRANCH   8  26
ATOM     26  O   UNL     1       4.851   2.716   0.704  0.00  0.00    +0.000 OA
ATOM     27  H   UNL     1       5.797   2.517   0.606  0.00  0.00    +0.000 HD
ENDBRANCH   8  26
BRANCH  10  28
ATOM     28  O   UNL     1       4.632  -1.801  -0.757  0.00  0.00    +0.000 OA
ATOM     29  H   UNL     1       3.969  -2.502  -0.950  0.00  0.00    +0.000 HD
ENDBRANCH  10  28
TORSDOF 7
