REMARK  Name = 
REMARK  14 active torsions:
REMARK  status: ('A' for Active; 'I' for Inactive)
REMARK    1  A    between atoms: CD1_1  and  CG_2
REMARK    2  A    between atoms: CG_2  and  CD2_3
REMARK    3  A    between atoms: CG_2  and  CB_4
REMARK    4  A    between atoms: CB_4  and  CA_5
REMARK    5  A    between atoms: CA_5  and  N_6
REMARK    6  A    between atoms: CA_5  and  C_26
REMARK    7  A    between atoms: N_6  and  CA_7
REMARK    8  A    between atoms: CA_7  and  C_8
REMARK    9  A    between atoms: CA_7  and  C_23
REMARK   10  A    between atoms: C_8  and  C_9
REMARK   11  A    between atoms: N_13  and  C_14
REMARK   12  A    between atoms: C_14  and  C_15
REMARK   13  A    between atoms: C_23  and  OXT_25
REMARK   14  A    between atoms: C_26  and  OXT_28
REMARK                            x       y       z     vdW  Elec       q    Type
REMARK                         _______ _______ _______ _____ _____    ______ ____
ROOT
ATOM      1  CA  UNL     1      -0.519   0.087  -0.969  0.00  0.00    +0.000 C 
ENDROOT
BRANCH   1   2
ATOM      2  N   UNL     1      -0.782  -1.149  -0.192  0.00  0.00    +0.000 NA
ATOM      3  H   UNL     1      -0.205  -1.908  -0.569  0.00  0.00    +0.000 HD
BRANCH   2   4
ATOM      4  CA  UNL     1      -2.189  -1.630  -0.102  0.00  0.00    +0.000 C 
BRANCH   4   5
ATOM      5  C   UNL     1      -2.547  -2.448  -1.357  0.00  0.00    +0.000 C 
ATOM      6  O   UNL     1      -1.743  -2.979  -2.112  0.00  0.00    +0.000 OA
BRANCH   5   7
ATOM      7  OXT UNL     1      -3.863  -2.626  -1.563  0.00  0.00    +0.000 OA
ATOM      8  HXT UNL     1      -3.906  -3.194  -2.361  0.00  0.00    +0.000 HD
ENDBRANCH   5   7
ENDBRANCH   4   5
BRANCH   4   9
ATOM      9  CB  UNL     1      -3.196  -0.512   0.240  0.00  0.00    +0.000 C 
BRANCH   9  11
ATOM     10  CD1 UNL     1      -4.139  -1.406   2.437  0.00  0.00    +0.000 C 
ATOM     11  CG  UNL     1      -4.459  -0.976   1.002  0.00  0.00    +0.000 C 
ATOM     12  CD2 UNL     1      -5.488   0.159   1.031  0.00  0.00    +0.000 C 
ENDBRANCH   9  11
ENDBRANCH   4   9
ENDBRANCH   2   4
ENDBRANCH   1   2
BRANCH   1  13
ATOM     13  C   UNL     1      -0.608  -0.156  -2.477  0.00  0.00    +0.000 C 
ATOM     14  O   UNL     1       0.309  -0.453  -3.227  0.00  0.00    +0.000 OA
BRANCH  13  15
ATOM     15  OXT UNL     1      -1.861  -0.019  -2.960  0.00  0.00    +0.000 OA
ATOM     16  HXT UNL     1      -1.767  -0.268  -3.905  0.00  0.00    +0.000 HD
ENDBRANCH  13  15
ENDBRANCH   1  13
BRANCH   1  17
ATOM     17  C   UNL     1       0.912   0.608  -0.676  0.00  0.00    +0.000 C 
BRANCH  17  18
ATOM     18  C   UNL     1       1.094   1.248   0.669  0.00  0.00    +0.000 A 
ATOM     19  C   UNL     1       0.374   1.150   1.845  0.00  0.00    +0.000 A 
ATOM     20  N   UNL     1       0.911   1.937   2.829  0.00  0.00    +0.000 NA
ATOM     21  C   UNL     1       1.966   2.495   2.285  0.00  0.00    +0.000 A 
ATOM     22  N   UNL     1       2.137   2.093   0.988  0.00  0.00    +0.000 N 
BRANCH  22  23
ATOM     23  C   UNL     1       3.223   2.542   0.129  0.00  0.00    +0.000 C 
BRANCH  23  24
ATOM     24  C   UNL     1       4.218   1.446  -0.165  0.00  0.00    +0.000 A 
ATOM     25  C   UNL     1       4.917   0.802   0.869  0.00  0.00    +0.000 A 
ATOM     26  C   UNL     1       5.843  -0.202   0.579  0.00  0.00    +0.000 A 
ATOM     27 CL   UNL     1       6.686  -0.978   1.863  0.00  0.00    +0.000 Cl
ATOM     28  C   UNL     1       6.095  -0.578  -0.737  0.00  0.00    +0.000 A 
ATOM     29  C   UNL     1       5.412   0.061  -1.766  0.00  0.00    +0.000 A 
ATOM     30 CL   UNL     1       5.719  -0.386  -3.399  0.00  0.00    +0.000 Cl
ATOM     31  C   UNL     1       4.483   1.067  -1.491  0.00  0.00    +0.000 A 
ENDBRANCH  23  24
ENDBRANCH  22  23
ENDBRANCH  17  18
ENDBRANCH   1  17
TORSDOF 12
