REMARK  Name = 
REMARK  14 active torsions:
REMARK  status: ('A' for Active; 'I' for Inactive)
REMARK    1  A    between atoms: CD1_1  and  CG_2
REMARK    2  A    between atoms: CG_2  and  CD2_3
REMARK    3  A    between atoms: CG_2  and  CB_4
REMARK    4  A    between atoms: CB_4  and  CA_5
REMARK    5  A    between atoms: CA_5  and  N_6
REMARK    6  A    between atoms: CA_5  and  C_25
REMARK    7  A    between atoms: N_6  and  CA_7
REMARK    8  A    between atoms: CA_7  and  C_8
REMARK    9  A    between atoms: CA_7  and  C_22
REMARK   10  A    between atoms: C_8  and  C_9
REMARK   11  A    between atoms: N_13  and  C_14
REMARK   12  A    between atoms: C_14  and  C_15
REMARK   13  A    between atoms: C_22  and  OXT_24
REMARK   14  A    between atoms: C_25  and  OXT_27
REMARK                            x       y       z     vdW  Elec       q    Type
REMARK                         _______ _______ _______ _____ _____    ______ ____
ROOT
ATOM      1  CA  UNL     1      -0.626  -0.847  -0.628  0.00  0.00    +0.000 C 
ENDROOT
BRANCH   1   2
ATOM      2  N   UNL     1      -1.895  -0.478   0.071  0.00  0.00    +0.000 NA
ATOM      3  H   UNL     1      -1.848  -0.897   1.006  0.00  0.00    +0.000 HD
BRANCH   2   4
ATOM      4  CA  UNL     1      -3.095  -1.021  -0.614  0.00  0.00    +0.000 C 
BRANCH   4   5
ATOM      5  C   UNL     1      -3.445  -0.303  -1.927  0.00  0.00    +0.000 C 
ATOM      6  O   UNL     1      -4.356  -0.625  -2.678  0.00  0.00    +0.000 OA
BRANCH   5   7
ATOM      7  OXT UNL     1      -2.674   0.758  -2.238  0.00  0.00    +0.000 OA
ATOM      8  HXT UNL     1      -3.058   1.095  -3.073  0.00  0.00    +0.000 HD
ENDBRANCH   5   7
ENDBRANCH   4   5
BRANCH   4   9
ATOM      9  CB  UNL     1      -4.321  -1.012   0.324  0.00  0.00    +0.000 C 
BRANCH   9  11
ATOM     10  CD1 UNL     1      -4.023   1.288   1.448  0.00  0.00    +0.000 C 
ATOM     11  CG  UNL     1      -4.951   0.357   0.669  0.00  0.00    +0.000 C 
ATOM     12  CD2 UNL     1      -6.234   0.130   1.480  0.00  0.00    +0.000 C 
ENDBRANCH   9  11
ENDBRANCH   4   9
ENDBRANCH   2   4
ENDBRANCH   1   2
BRANCH   1  13
ATOM     13  C   UNL     1      -0.057  -2.156  -0.053  0.00  0.00    +0.000 C 
ATOM     14  O   UNL     1       0.933  -2.756  -0.441  0.00  0.00    +0.000 OA
BRANCH  13  15
ATOM     15  OXT UNL     1      -0.746  -2.628   1.013  0.00  0.00    +0.000 OA
ATOM     16  HXT UNL     1      -0.277  -3.457   1.251  0.00  0.00    +0.000 HD
ENDBRANCH  13  15
ENDBRANCH   1  13
BRANCH   1  17
ATOM     17  C   UNL     1       0.394   0.290  -0.421  0.00  0.00    +0.000 C 
BRANCH  17  18
ATOM     18  C   UNL     1       1.424   0.339  -1.506  0.00  0.00    +0.000 A 
ATOM     19  C   UNL     1       1.315   0.840  -2.790  0.00  0.00    +0.000 A 
ATOM     20  N   UNL     1       2.477   0.676  -3.490  0.00  0.00    +0.000 NA
ATOM     21  C   UNL     1       3.303   0.097  -2.651  0.00  0.00    +0.000 A 
ATOM     22  N   UNL     1       2.722  -0.117  -1.428  0.00  0.00    +0.000 N 
BRANCH  22  23
ATOM     23  C   UNL     1       3.397  -0.760  -0.311  0.00  0.00    +0.000 C 
BRANCH  23  24
ATOM     24  C   UNL     1       4.486   0.111   0.270  0.00  0.00    +0.000 A 
ATOM     25  C   UNL     1       4.180   1.348   0.861  0.00  0.00    +0.000 A 
ATOM     26  C   UNL     1       5.190   2.144   1.405  0.00  0.00    +0.000 A 
ATOM     27  C   UNL     1       6.512   1.708   1.366  0.00  0.00    +0.000 A 
ATOM     28 CL   UNL     1       7.757   2.688   2.038  0.00  0.00    +0.000 Cl
ATOM     29  C   UNL     1       6.833   0.482   0.788  0.00  0.00    +0.000 A 
ATOM     30  C   UNL     1       5.823  -0.315   0.243  0.00  0.00    +0.000 A 
ENDBRANCH  23  24
ENDBRANCH  22  23
ENDBRANCH  17  18
ENDBRANCH   1  17
TORSDOF 12
