REMARK  Name = 
REMARK  16 active torsions:
REMARK  status: ('A' for Active; 'I' for Inactive)
REMARK    1  A    between atoms: CD1_1  and  CG_2
REMARK    2  A    between atoms: CG_2  and  CD2_3
REMARK    3  A    between atoms: CG_2  and  CB_4
REMARK    4  A    between atoms: CB_4  and  CA_5
REMARK    5  A    between atoms: CA_5  and  N_6
REMARK    6  A    between atoms: CA_5  and  C_32
REMARK    7  A    between atoms: N_6  and  CA_7
REMARK    8  A    between atoms: CA_7  and  C_8
REMARK    9  A    between atoms: CA_7  and  C_29
REMARK   10  A    between atoms: C_8  and  C_9
REMARK   11  A    between atoms: N_13  and  C_14
REMARK   12  A    between atoms: C_14  and  C_15
REMARK   13  A    between atoms: C_17  and  C_18
REMARK   14  A    between atoms: C_23  and  C_24
REMARK   15  A    between atoms: C_29  and  OXT_31
REMARK   16  A    between atoms: C_32  and  OXT_34
REMARK                            x       y       z     vdW  Elec       q    Type
REMARK                         _______ _______ _______ _____ _____    ______ ____
ROOT
ATOM      1  C   UNL     1      -0.910  -1.713   0.669  0.00  0.00    +0.000 A 
ATOM      2  C   UNL     1      -0.830  -2.941   1.300  0.00  0.00    +0.000 A 
ATOM      3  N   UNL     1      -1.835  -3.774   0.897  0.00  0.00    +0.000 NA
ATOM      4  C   UNL     1      -2.538  -3.074   0.039  0.00  0.00    +0.000 A 
ATOM      5  N   UNL     1      -2.034  -1.809  -0.121  0.00  0.00    +0.000 N 
ENDROOT
BRANCH   1   6
ATOM      6  C   UNL     1      -0.009  -0.524   0.797  0.00  0.00    +0.000 C 
BRANCH   6   7
ATOM      7  CA  UNL     1       1.325  -0.708   0.041  0.00  0.00    +0.000 C 
BRANCH   7   8
ATOM      8  N   UNL     1       2.322   0.293   0.514  0.00  0.00    +0.000 NA
ATOM      9  H   UNL     1       2.339   0.273   1.539  0.00  0.00    +0.000 HD
BRANCH   8  10
ATOM     10  CA  UNL     1       3.708  -0.019   0.054  0.00  0.00    +0.000 C 
BRANCH  10  11
ATOM     11  C   UNL     1       4.257  -1.211   0.849  0.00  0.00    +0.000 C 
ATOM     12  O   UNL     1       3.938  -1.523   1.987  0.00  0.00    +0.000 OA
BRANCH  11  13
ATOM     13  OXT UNL     1       5.158  -1.939   0.162  0.00  0.00    +0.000 OA
ATOM     14  HXT UNL     1       5.404  -2.665   0.775  0.00  0.00    +0.000 HD
ENDBRANCH  11  13
ENDBRANCH  10  11
BRANCH  10  15
ATOM     15  CB  UNL     1       4.565   1.234   0.313  0.00  0.00    +0.000 C 
BRANCH  15  17
ATOM     16  CD1 UNL     1       6.760   2.449   0.183  0.00  0.00    +0.000 C 
ATOM     17  CG  UNL     1       6.017   1.167  -0.206  0.00  0.00    +0.000 C 
ATOM     18  CD2 UNL     1       6.089   0.972  -1.721  0.00  0.00    +0.000 C 
ENDBRANCH  15  17
ENDBRANCH  10  15
ENDBRANCH   8  10
ENDBRANCH   7   8
BRANCH   7  19
ATOM     19  C   UNL     1       1.085  -0.555  -1.464  0.00  0.00    +0.000 C 
ATOM     20  O   UNL     1       1.227  -1.429  -2.307  0.00  0.00    +0.000 OA
BRANCH  19  21
ATOM     21  OXT UNL     1       0.701   0.682  -1.844  0.00  0.00    +0.000 OA
ATOM     22  HXT UNL     1       0.707   0.643  -2.823  0.00  0.00    +0.000 HD
ENDBRANCH  19  21
ENDBRANCH   7  19
ENDBRANCH   6   7
ENDBRANCH   1   6
BRANCH   5  23
ATOM     23  C   UNL     1      -2.601  -0.822  -1.026  0.00  0.00    +0.000 C 
BRANCH  23  24
ATOM     24  C   UNL     1      -3.847  -0.188  -0.453  0.00  0.00    +0.000 A 
ATOM     25  C   UNL     1      -3.754   0.877   0.457  0.00  0.00    +0.000 A 
ATOM     26  C   UNL     1      -4.905   1.471   1.000  0.00  0.00    +0.000 A 
ATOM     27  C   UNL     1      -6.165   0.969   0.633  0.00  0.00    +0.000 A 
ATOM     28  C   UNL     1      -6.285  -0.097  -0.274  0.00  0.00    +0.000 A 
ATOM     29  C   UNL     1      -5.118  -0.668  -0.808  0.00  0.00    +0.000 A 
BRANCH  26  30
ATOM     30  C   UNL     1      -4.781   2.607   1.993  0.00  0.00    +0.000 C 
ATOM     31  F   UNL     1      -4.592   2.164   3.268  0.00  0.00    +0.000 F 
ATOM     32  F   UNL     1      -3.733   3.435   1.721  0.00  0.00    +0.000 F 
ATOM     33  F   UNL     1      -5.884   3.405   2.030  0.00  0.00    +0.000 F 
ENDBRANCH  26  30
BRANCH  28  34
ATOM     34  C   UNL     1      -7.653  -0.623  -0.647  0.00  0.00    +0.000 C 
ATOM     35  F   UNL     1      -8.498   0.365  -1.054  0.00  0.00    +0.000 F 
ATOM     36  F   UNL     1      -7.624  -1.530  -1.662  0.00  0.00    +0.000 F 
ATOM     37  F   UNL     1      -8.272  -1.242   0.395  0.00  0.00    +0.000 F 
ENDBRANCH  28  34
ENDBRANCH  23  24
ENDBRANCH   5  23
TORSDOF 14
