REMARK  Name = 
REMARK  4 active torsions:
REMARK  status: ('A' for Active; 'I' for Inactive)
REMARK    1  A    between atoms: C_4  and  C_5
REMARK    2  A    between atoms: C_8  and  O_9
REMARK    3  A    between atoms: C_15  and  O_16
REMARK    4  A    between atoms: C_18  and  O_19
REMARK                            x       y       z     vdW  Elec       q    Type
REMARK                         _______ _______ _______ _____ _____    ______ ____
ROOT
ATOM      1  O   UNL     1       2.167  -1.533  -2.526  0.00  0.00    +0.000 OA
ATOM      2  C   UNL     1       1.585  -1.010  -1.579  0.00  0.00    +0.000 C 
ATOM      3  C   UNL     1       0.115  -1.180  -1.327  0.00  0.00    +0.000 C 
ATOM      4  C   UNL     1      -0.396   0.083  -0.648  0.00  0.00    +0.000 C 
ATOM      5  O   UNL     1       0.283   0.308   0.599  0.00  0.00    +0.000 OA
ATOM      6  C   UNL     1       1.645   0.374   0.463  0.00  0.00    +0.000 A 
ATOM      7  C   UNL     1       2.335   1.063   1.461  0.00  0.00    +0.000 A 
ATOM      8  C   UNL     1       3.721   1.175   1.378  0.00  0.00    +0.000 A 
ATOM      9  C   UNL     1       4.426   0.602   0.323  0.00  0.00    +0.000 A 
ATOM     10  C   UNL     1       3.736  -0.103  -0.659  0.00  0.00    +0.000 A 
ATOM     11  C   UNL     1       2.345  -0.226  -0.588  0.00  0.00    +0.000 A 
ENDROOT
BRANCH   4  12
ATOM     12  C   UNL     1      -1.886  -0.019  -0.382  0.00  0.00    +0.000 A 
ATOM     13  C   UNL     1      -2.383  -0.742   0.715  0.00  0.00    +0.000 A 
ATOM     14  C   UNL     1      -3.758  -0.847   0.933  0.00  0.00    +0.000 A 
ATOM     15  C   UNL     1      -4.643  -0.236   0.055  0.00  0.00    +0.000 A 
ATOM     16  C   UNL     1      -4.177   0.481  -1.041  0.00  0.00    +0.000 A 
ATOM     17  C   UNL     1      -2.801   0.587  -1.260  0.00  0.00    +0.000 A 
BRANCH  15  18
ATOM     18  O   UNL     1      -5.977  -0.365   0.306  0.00  0.00    +0.000 OA
ATOM     19  H   UNL     1      -6.470   0.114  -0.380  0.00  0.00    +0.000 HD
ENDBRANCH  15  18
ENDBRANCH   4  12
BRANCH   8  20
ATOM     20  O   UNL     1       4.434   1.849   2.325  0.00  0.00    +0.000 OA
ATOM     21  H   UNL     1       3.826   2.184   3.005  0.00  0.00    +0.000 HD
ENDBRANCH   8  20
BRANCH  10  22
ATOM     22  O   UNL     1       4.482  -0.660  -1.662  0.00  0.00    +0.000 OA
ATOM     23  H   UNL     1       3.875  -1.141  -2.269  0.00  0.00    +0.000 HD
ENDBRANCH  10  22
TORSDOF 4
