REMARK  Name = 
REMARK  12 active torsions:
REMARK  status: ('A' for Active; 'I' for Inactive)
REMARK    1  A    between atoms: C_3  and  O_4
REMARK    2  A    between atoms: O_4  and  C_5
REMARK    3  A    between atoms: C_7  and  C_8
REMARK    4  A    between atoms: C_8  and  O_9
REMARK    5  A    between atoms: C_10  and  O_11
REMARK    6  A    between atoms: C_12  and  O_13
REMARK    7  A    between atoms: C_14  and  O_15
REMARK    8  A    between atoms: C_16  and  C_17
REMARK    9  A    between atoms: C_20  and  O_21
REMARK   10  A    between atoms: C_22  and  O_23
REMARK   11  A    between atoms: C_28  and  O_29
REMARK   12  A    between atoms: C_31  and  O_32
REMARK                            x       y       z     vdW  Elec       q    Type
REMARK                         _______ _______ _______ _____ _____    ______ ____
ROOT
ATOM      1  O   UNL     1       0.494  -2.670  -0.837  0.00  0.00    +0.000 OA
ATOM      2  C   UNL     1      -0.508  -1.969  -0.705  0.00  0.00    +0.000 A 
ATOM      3  C   UNL     1      -0.443  -0.484  -0.685  0.00  0.00    +0.000 A 
ATOM      4  C   UNL     1      -1.606   0.199  -0.632  0.00  0.00    +0.000 A 
ATOM      5  O   UNL     1      -2.856  -0.390  -0.506  0.00  0.00    +0.000 OA
ATOM      6  C   UNL     1      -2.942  -1.757  -0.462  0.00  0.00    +0.000 A 
ATOM      7  C   UNL     1      -4.219  -2.303  -0.322  0.00  0.00    +0.000 A 
ATOM      8  C   UNL     1      -4.367  -3.687  -0.277  0.00  0.00    +0.000 A 
ATOM      9  C   UNL     1      -3.262  -4.528  -0.372  0.00  0.00    +0.000 A 
ATOM     10  C   UNL     1      -1.992  -3.977  -0.514  0.00  0.00    +0.000 A 
ATOM     11  C   UNL     1      -1.829  -2.588  -0.557  0.00  0.00    +0.000 A 
ENDROOT
BRANCH   4  12
ATOM     12  C   UNL     1      -1.681   1.673  -0.686  0.00  0.00    +0.000 A 
ATOM     13  C   UNL     1      -2.389   2.370   0.310  0.00  0.00    +0.000 A 
ATOM     14  C   UNL     1      -2.493   3.765   0.279  0.00  0.00    +0.000 A 
ATOM     15  C   UNL     1      -1.892   4.462  -0.760  0.00  0.00    +0.000 A 
ATOM     16  C   UNL     1      -1.196   3.780  -1.754  0.00  0.00    +0.000 A 
ATOM     17  C   UNL     1      -1.084   2.396  -1.728  0.00  0.00    +0.000 A 
BRANCH  15  18
ATOM     18  O   UNL     1      -1.958   5.825  -0.851  0.00  0.00    +0.000 OA
ATOM     19  H   UNL     1      -2.474   6.156  -0.095  0.00  0.00    +0.000 HD
ENDBRANCH  15  18
BRANCH  16  20
ATOM     20  O   UNL     1      -0.616   4.474  -2.778  0.00  0.00    +0.000 OA
ATOM     21  H   UNL     1      -0.805   5.412  -2.578  0.00  0.00    +0.000 HD
ENDBRANCH  16  20
ENDBRANCH   4  12
BRANCH   8  22
ATOM     22  O   UNL     1      -5.594  -4.265  -0.141  0.00  0.00    +0.000 OA
ATOM     23  H   UNL     1      -6.273  -3.571  -0.097  0.00  0.00    +0.000 HD
ENDBRANCH   8  22
BRANCH  10  24
ATOM     24  O   UNL     1      -0.944  -4.853  -0.608  0.00  0.00    +0.000 OA
ATOM     25  H   UNL     1      -0.118  -4.332  -0.721  0.00  0.00    +0.000 HD
ENDBRANCH  10  24
BRANCH   3  26
ATOM     26  O   UNL     1       0.807   0.091  -0.809  0.00  0.00    +0.000 OA
BRANCH  26  27
ATOM     27  C   UNL     1       1.341   0.574   0.434  0.00  0.00    +0.000 C 
ATOM     28  O   UNL     1       2.483   1.415   0.175  0.00  0.00    +0.000 OA
ATOM     29  C   UNL     1       3.749   0.740   0.079  0.00  0.00    +0.000 C 
ATOM     30  C   UNL     1       4.093   0.091   1.435  0.00  0.00    +0.000 C 
ATOM     31  C   UNL     1       2.847  -0.137   2.301  0.00  0.00    +0.000 C 
ATOM     32  C   UNL     1       1.668  -0.562   1.436  0.00  0.00    +0.000 C 
BRANCH  30  33
ATOM     33  O   UNL     1       4.978   0.932   2.199  0.00  0.00    +0.000 OA
ATOM     34  H   UNL     1       4.648   1.848   2.129  0.00  0.00    +0.000 HD
ENDBRANCH  30  33
BRANCH  31  35
ATOM     35  O   UNL     1       3.108  -1.153   3.283  0.00  0.00    +0.000 OA
ATOM     36  H   UNL     1       3.938  -0.887   3.726  0.00  0.00    +0.000 HD
ENDBRANCH  31  35
BRANCH  32  37
ATOM     37  O   UNL     1       0.537  -0.854   2.277  0.00  0.00    +0.000 OA
ATOM     38  H   UNL     1       0.905  -1.399   3.004  0.00  0.00    +0.000 HD
ENDBRANCH  32  37
BRANCH  29  39
ATOM     39  C   UNL     1       3.826  -0.260  -1.090  0.00  0.00    +0.000 C 
BRANCH  39  40
ATOM     40  O   UNL     1       3.691   0.434  -2.327  0.00  0.00    +0.000 OA
ATOM     41  H   UNL     1       3.261  -0.172  -2.955  0.00  0.00    +0.000 HD
ENDBRANCH  39  40
ENDBRANCH  29  39
ENDBRANCH  26  27
ENDBRANCH   3  26
TORSDOF 12
