REMARK  Name = 
REMARK  17 active torsions:
REMARK  status: ('A' for Active; 'I' for Inactive)
REMARK    1  A    between atoms: C_1  and  C_2
REMARK    2  A    between atoms: C_4  and  O_5
REMARK    3  A    between atoms: O_5  and  C_6
REMARK    4  A    between atoms: C_6  and  C_7
REMARK    5  A    between atoms: C_9  and  O_10
REMARK    6  A    between atoms: O_10  and  C_11
REMARK    7  A    between atoms: C_12  and  C_13
REMARK    8  A    between atoms: C_16  and  O_17
REMARK    9  A    between atoms: C_18  and  O_19
REMARK   10  A    between atoms: C_24  and  O_25
REMARK   11  A    between atoms: C_27  and  O_28
REMARK   12  A    between atoms: C_32  and  O_33
REMARK   13  A    between atoms: C_34  and  O_35
REMARK   14  A    between atoms: C_36  and  O_37
REMARK   15  A    between atoms: C_38  and  O_39
REMARK   16  A    between atoms: C_40  and  O_41
REMARK   17  A    between atoms: C_42  and  O_43
REMARK                            x       y       z     vdW  Elec       q    Type
REMARK                         _______ _______ _______ _____ _____    ______ ____
ROOT
ATOM      1  C   UNL     1      -1.032   1.746  -0.625  0.00  0.00    +0.000 C 
ATOM      2  O   UNL     1       0.247   2.388  -0.722  0.00  0.00    +0.000 OA
ATOM      3  C   UNL     1       0.884   2.605   0.549  0.00  0.00    +0.000 C 
ATOM      4  C   UNL     1       0.007   3.465   1.492  0.00  0.00    +0.000 C 
ATOM      5  C   UNL     1      -1.410   2.900   1.600  0.00  0.00    +0.000 C 
ATOM      6  C   UNL     1      -2.000   2.599   0.211  0.00  0.00    +0.000 C 
ENDROOT
BRANCH   4   7
ATOM      7  O   UNL     1      -0.076   4.816   1.007  0.00  0.00    +0.000 OA
ATOM      8  H   UNL     1       0.828   5.187   1.073  0.00  0.00    +0.000 HD
ENDBRANCH   4   7
BRANCH   5   9
ATOM      9  O   UNL     1      -1.437   1.716   2.408  0.00  0.00    +0.000 OA
ATOM     10  H   UNL     1      -2.291   1.289   2.190  0.00  0.00    +0.000 HD
ENDBRANCH   5   9
BRANCH   6  11
ATOM     11  O   UNL     1      -3.259   1.941   0.424  0.00  0.00    +0.000 OA
ATOM     12  H   UNL     1      -3.818   2.163  -0.353  0.00  0.00    +0.000 HD
ENDBRANCH   6  11
BRANCH   1  13
ATOM     13  C   UNL     1      -1.542   1.559  -2.066  0.00  0.00    +0.000 C 
BRANCH  13  14
ATOM     14  O   UNL     1      -2.751   0.812  -2.193  0.00  0.00    +0.000 OA
BRANCH  14  18
ATOM     15  C   UNL     1      -3.999  -1.382   1.242  0.00  0.00    +0.000 C 
ATOM     16  C   UNL     1      -3.987  -1.212  -0.277  0.00  0.00    +0.000 C 
ATOM     17  O   UNL     1      -2.642  -1.007  -0.704  0.00  0.00    +0.000 OA
ATOM     18  C   UNL     1      -2.550  -0.607  -2.074  0.00  0.00    +0.000 C 
ATOM     19  C   UNL     1      -3.571  -1.338  -2.982  0.00  0.00    +0.000 C 
ATOM     20  C   UNL     1      -3.973  -2.672  -2.349  0.00  0.00    +0.000 C 
ATOM     21  C   UNL     1      -4.593  -2.452  -0.964  0.00  0.00    +0.000 C 
BRANCH  19  22
ATOM     22  O   UNL     1      -3.017  -1.595  -4.293  0.00  0.00    +0.000 OA
ATOM     23  H   UNL     1      -3.598  -2.292  -4.670  0.00  0.00    +0.000 HD
ENDBRANCH  19  22
BRANCH  20  24
ATOM     24  O   UNL     1      -4.900  -3.344  -3.220  0.00  0.00    +0.000 OA
ATOM     25  H   UNL     1      -5.791  -3.087  -2.885  0.00  0.00    +0.000 HD
ENDBRANCH  20  24
BRANCH  21  26
ATOM     26  O   UNL     1      -6.016  -2.284  -1.113  0.00  0.00    +0.000 OA
ATOM     27  H   UNL     1      -6.394  -2.235  -0.214  0.00  0.00    +0.000 HD
ENDBRANCH  21  26
ENDBRANCH  14  18
ENDBRANCH  13  14
ENDBRANCH   1  13
BRANCH   3  28
ATOM     28  O   UNL     1       1.206   1.366   1.179  0.00  0.00    +0.000 OA
BRANCH  28  29
ATOM     29  C   UNL     1       2.534   0.993   1.156  0.00  0.00    +0.000 A 
ATOM     30  C   UNL     1       2.906  -0.249   0.794  0.00  0.00    +0.000 A 
ATOM     31  O   UNL     1       4.202  -0.731   0.799  0.00  0.00    +0.000 OA
ATOM     32  C   UNL     1       5.190   0.063   1.328  0.00  0.00    +0.000 A 
ATOM     33  C   UNL     1       6.466  -0.497   1.416  0.00  0.00    +0.000 A 
ATOM     34  C   UNL     1       7.512   0.271   1.921  0.00  0.00    +0.000 A 
ATOM     35  C   UNL     1       7.303   1.584   2.330  0.00  0.00    +0.000 A 
ATOM     36  C   UNL     1       6.030   2.137   2.235  0.00  0.00    +0.000 A 
ATOM     37  C   UNL     1       4.967   1.374   1.743  0.00  0.00    +0.000 A 
ATOM     38  C   UNL     1       3.599   1.913   1.647  0.00  0.00    +0.000 A 
ATOM     39  O   UNL     1       3.382   3.076   1.974  0.00  0.00    +0.000 OA
BRANCH  30  40
ATOM     40  C   UNL     1       1.924  -1.247   0.338  0.00  0.00    +0.000 A 
ATOM     41  C   UNL     1       1.053  -1.855   1.261  0.00  0.00    +0.000 A 
ATOM     42  C   UNL     1       0.120  -2.807   0.842  0.00  0.00    +0.000 A 
ATOM     43  C   UNL     1       0.065  -3.148  -0.499  0.00  0.00    +0.000 A 
ATOM     44  C   UNL     1       0.927  -2.552  -1.423  0.00  0.00    +0.000 A 
ATOM     45  C   UNL     1       1.854  -1.599  -1.018  0.00  0.00    +0.000 A 
BRANCH  43  46
ATOM     46  O   UNL     1      -0.836  -4.087  -0.914  0.00  0.00    +0.000 OA
ATOM     47  H   UNL     1      -0.614  -4.215  -1.863  0.00  0.00    +0.000 HD
ENDBRANCH  43  46
BRANCH  44  48
ATOM     48  O   UNL     1       0.812  -2.947  -2.727  0.00  0.00    +0.000 OA
ATOM     49  H   UNL     1       1.382  -2.389  -3.282  0.00  0.00    +0.000 HD
ENDBRANCH  44  48
ENDBRANCH  30  40
BRANCH  34  50
ATOM     50  O   UNL     1       8.775  -0.231   2.027  0.00  0.00    +0.000 OA
ATOM     51  H   UNL     1       8.772  -1.164   1.756  0.00  0.00    +0.000 HD
ENDBRANCH  34  50
BRANCH  36  52
ATOM     52  O   UNL     1       5.896   3.436   2.635  0.00  0.00    +0.000 OA
ATOM     53  H   UNL     1       4.955   3.702   2.526  0.00  0.00    +0.000 HD
ENDBRANCH  36  52
ENDBRANCH  28  29
ENDBRANCH   3  28
TORSDOF 16
