REMARK  Name = 
REMARK  7 active torsions:
REMARK  status: ('A' for Active; 'I' for Inactive)
REMARK    1  A    between atoms: C_1  and  O_2
REMARK    2  A    between atoms: O_2  and  C_3
REMARK    3  A    between atoms: C_6  and  C_7
REMARK    4  A    between atoms: C_11  and  O_12
REMARK    5  A    between atoms: C_14  and  O_15
REMARK    6  A    between atoms: C_19  and  O_20
REMARK    7  A    between atoms: C_22  and  O_23
REMARK                            x       y       z     vdW  Elec       q    Type
REMARK                         _______ _______ _______ _____ _____    ______ ____
ROOT
ATOM      1  C   UNL     1       0.238  -0.308  -0.384  0.00  0.00    +0.000 A 
ATOM      2  O   UNL     1       1.055   0.294   0.565  0.00  0.00    +0.000 OA
ATOM      3  C   UNL     1       2.412   0.287   0.371  0.00  0.00    +0.000 A 
ATOM      4  C   UNL     1       3.197   0.890   1.354  0.00  0.00    +0.000 A 
ATOM      5  C   UNL     1       4.581   0.914   1.208  0.00  0.00    +0.000 A 
ATOM      6  C   UNL     1       5.196   0.346   0.095  0.00  0.00    +0.000 A 
ATOM      7  C   UNL     1       4.407  -0.254  -0.884  0.00  0.00    +0.000 A 
ATOM      8  C   UNL     1       3.016  -0.283  -0.745  0.00  0.00    +0.000 A 
ATOM      9  C   UNL     1       2.155  -0.903  -1.754  0.00  0.00    +0.000 A 
ATOM     10  O   UNL     1       2.615  -1.419  -2.771  0.00  0.00    +0.000 OA
ATOM     11  C   UNL     1       0.694  -0.887  -1.510  0.00  0.00    +0.000 A 
ENDROOT
BRANCH   1  15
ATOM     12  C   UNL     1      -3.921  -0.026   0.686  0.00  0.00    +0.000 A 
ATOM     13  C   UNL     1      -3.100   1.098   0.736  0.00  0.00    +0.000 A 
ATOM     14  C   UNL     1      -1.748   0.994   0.378  0.00  0.00    +0.000 A 
ATOM     15  C   UNL     1      -1.197  -0.229  -0.042  0.00  0.00    +0.000 A 
ATOM     16  C   UNL     1      -2.026  -1.356  -0.081  0.00  0.00    +0.000 A 
ATOM     17  C   UNL     1      -3.366  -1.243   0.278  0.00  0.00    +0.000 A 
BRANCH  12  19
ATOM     18  C   UNL     1      -5.852   1.151   1.416  0.00  0.00    +0.000 C 
ATOM     19  O   UNL     1      -5.253  -0.073   1.007  0.00  0.00    +0.000 OA
ENDBRANCH  12  19
BRANCH  17  20
ATOM     20  O   UNL     1      -4.144  -2.369   0.226  0.00  0.00    +0.000 OA
ATOM     21  H   UNL     1      -5.033  -2.073   0.505  0.00  0.00    +0.000 HD
ENDBRANCH  17  20
ENDBRANCH   1  15
BRANCH   5  22
ATOM     22  O   UNL     1       5.311   1.513   2.192  0.00  0.00    +0.000 OA
ATOM     23  H   UNL     1       6.255   1.449   1.967  0.00  0.00    +0.000 HD
ENDBRANCH   5  22
BRANCH   7  24
ATOM     24  O   UNL     1       5.063  -0.794  -1.957  0.00  0.00    +0.000 OA
ATOM     25  H   UNL     1       4.396  -1.181  -2.567  0.00  0.00    +0.000 HD
ENDBRANCH   7  24
BRANCH  11  26
ATOM     26  O   UNL     1      -0.113  -1.459  -2.475  0.00  0.00    +0.000 OA
ATOM     27  H   UNL     1       0.497  -1.784  -3.169  0.00  0.00    +0.000 HD
ENDBRANCH  11  26
TORSDOF 6
