CHEMBL288302
 OpenBabel01252620473D

 55 58  0  0  1  0  0  0  0  0999 V2000
   -0.0167    1.3790    0.0096 C   0  0  0  0  0  0  0  0  0  0  0  0
    1.1687    2.0919    0.0021 C   0  0  0  0  0  0  0  0  0  0  0  0
    2.3774    1.4258   -0.0129 C   0  0  0  0  0  0  0  0  0  0  0  0
    2.4022    0.0327   -0.0206 C   0  0  0  0  0  0  0  0  0  0  0  0
    1.2051   -0.6804   -0.0130 C   0  0  0  0  0  0  0  0  0  0  0  0
    0.0021   -0.0041    0.0020 C   0  0  0  0  0  0  0  0  0  0  0  0
    3.6987   -0.6889   -0.0373 C   0  0  0  0  0  0  0  0  0  0  0  0
    4.8960    0.0242   -0.0395 C   0  0  0  0  0  0  0  0  0  0  0  0
    6.0988   -0.6520   -0.0546 C   0  0  0  0  0  0  0  0  0  0  0  0
    6.1176   -2.0352   -0.0675 C   0  0  0  0  0  0  0  0  0  0  0  0
    4.9324   -2.7480   -0.0658 C   0  0  0  0  0  0  0  0  0  0  0  0
    3.7235   -2.0818   -0.0450 C   0  0  0  0  0  0  0  0  0  0  0  0
    4.9608   -4.2546   -0.0809 C   0  0  1  0  0  0  0  0  0  0  0  0
    5.6823   -4.7385   -1.3403 C   0  0  0  0  0  0  0  0  0  0  0  0
    5.5878   -6.5476   -1.4339 S   0  0  0  0  0  0  0  0  0  0  0  0
    5.6896   -4.7555    1.1394 C   0  0  0  0  0  0  0  0  0  0  0  0
    6.1414   -3.9668    1.9422 O   0  0  0  0  0  0  0  0  0  0  0  0
    5.8392   -6.0801    1.3385 N   0  0  0  0  0  0  0  0  0  0  0  0
    6.5477   -6.5670    2.5247 C   0  0  2  0  0  0  0  0  0  0  0  0
    7.1225   -7.9563    2.2409 C   0  0  0  0  0  0  0  0  0  0  0  0
    8.1714   -7.8554    1.1635 C   0  0  0  0  0  0  0  0  0  0  0  0
    7.9859   -8.0482   -0.1519 C   0  0  0  0  0  0  0  0  0  0  0  0
    9.1667   -7.8715   -0.8204 N   0  0  0  0  0  0  0  0  0  0  0  0
    9.2823   -7.9580   -1.7796 H   0  0  0  0  0  0  0  0  0  0  0  0
   10.1663   -7.5525    0.0712 C   0  0  0  0  0  0  0  0  0  0  0  0
    9.5854   -7.5223    1.3524 C   0  0  0  0  0  0  0  0  0  0  0  0
   10.3698   -7.2166    2.4658 C   0  0  0  0  0  0  0  0  0  0  0  0
   11.6994   -6.9443    2.3049 C   0  0  0  0  0  0  0  0  0  0  0  0
   12.2762   -6.9689    1.0428 C   0  0  0  0  0  0  0  0  0  0  0  0
   11.5224   -7.2773   -0.0687 C   0  0  0  0  0  0  0  0  0  0  0  0
    5.5890   -6.6474    3.6847 C   0  0  0  0  0  0  0  0  0  0  0  0
    4.3926   -6.5055    3.4977 O   0  0  0  0  0  0  0  0  0  0  0  0
    6.0098   -6.8544    4.8101 O   0  0  0  0  0  1  0  0  0  0  0  0
   -0.9603    1.9042    0.0260 H   0  0  0  0  0  0  0  0  0  0  0  0
    1.1483    3.1717    0.0077 H   0  0  0  0  0  0  0  0  0  0  0  0
    3.3023    1.9834   -0.0191 H   0  0  0  0  0  0  0  0  0  0  0  0
    1.2186   -1.7603   -0.0193 H   0  0  0  0  0  0  0  0  0  0  0  0
   -0.9264   -0.5558    0.0082 H   0  0  0  0  0  0  0  0  0  0  0  0
    4.8825    1.1041   -0.0299 H   0  0  0  0  0  0  0  0  0  0  0  0
    7.0273   -0.1003   -0.0567 H   0  0  0  0  0  0  0  0  0  0  0  0
    7.0612   -2.5604   -0.0793 H   0  0  0  0  0  0  0  0  0  0  0  0
    2.7986   -2.6394   -0.0391 H   0  0  0  0  0  0  0  0  0  0  0  0
    3.9402   -4.6373   -0.0771 H   0  0  0  0  0  0  0  0  0  0  0  0
    5.2081   -4.3039   -2.2203 H   0  0  0  0  0  0  0  0  0  0  0  0
    6.7272   -4.4308   -1.3013 H   0  0  0  0  0  0  0  0  0  0  0  0
    6.2477   -6.8498   -2.5663 H   0  0  0  0  0  0  0  0  0  0  0  0
    5.4778   -6.7109    0.6964 H   0  0  0  0  0  0  0  0  0  0  0  0
    7.3587   -5.8815    2.7705 H   0  0  0  0  0  0  0  0  0  0  0  0
    7.5725   -8.3559    3.1498 H   0  0  0  0  0  0  0  0  0  0  0  0
    6.3235   -8.6193    1.9092 H   0  0  0  0  0  0  0  0  0  0  0  0
    7.0443   -8.3051   -0.6141 H   0  0  0  0  0  0  0  0  0  0  0  0
    9.9276   -7.1949    3.4509 H   0  0  0  0  0  0  0  0  0  0  0  0
   12.3059   -6.7079    3.1666 H   0  0  0  0  0  0  0  0  0  0  0  0
   13.3281   -6.7508    0.9316 H   0  0  0  0  0  0  0  0  0  0  0  0
   11.9803   -7.2926   -1.0467 H   0  0  0  0  0  0  0  0  0  0  0  0
  1  6  2  0  0  0  0
  1  2  1  0  0  0  0
  1 34  1  0  0  0  0
  2  3  2  0  0  0  0
  2 35  1  0  0  0  0
  3  4  1  0  0  0  0
  3 36  1  0  0  0  0
  4  5  2  0  0  0  0
  4  7  1  0  0  0  0
  5  6  1  0  0  0  0
  5 37  1  0  0  0  0
  6 38  1  0  0  0  0
  7 12  2  0  0  0  0
  7  8  1  0  0  0  0
  8  9  2  0  0  0  0
  8 39  1  0  0  0  0
  9 10  1  0  0  0  0
  9 40  1  0  0  0  0
 10 11  2  0  0  0  0
 10 41  1  0  0  0  0
 11 12  1  0  0  0  0
 11 13  1  0  0  0  0
 12 42  1  0  0  0  0
 13 14  1  0  0  0  0
 13 16  1  0  0  0  0
 13 43  1  1  0  0  0
 14 15  1  0  0  0  0
 14 44  1  0  0  0  0
 14 45  1  0  0  0  0
 15 46  1  0  0  0  0
 16 17  2  0  0  0  0
 16 18  1  0  0  0  0
 18 19  1  0  0  0  0
 18 47  1  0  0  0  0
 19 20  1  0  0  0  0
 19 31  1  0  0  0  0
 19 48  1  1  0  0  0
 20 21  1  0  0  0  0
 20 49  1  0  0  0  0
 20 50  1  0  0  0  0
 21 26  1  0  0  0  0
 21 22  2  0  0  0  0
 22 23  1  0  0  0  0
 22 51  1  0  0  0  0
 23 24  1  0  0  0  0
 23 25  1  0  0  0  0
 25 30  2  0  0  0  0
 25 26  1  0  0  0  0
 26 27  2  0  0  0  0
 27 28  1  0  0  0  0
 27 52  1  0  0  0  0
 28 29  2  0  0  0  0
 28 53  1  0  0  0  0
 29 30  1  0  0  0  0
 29 54  1  0  0  0  0
 30 55  1  0  0  0  0
 31 32  2  0  0  0  0
 31 33  1  0  0  0  0
M  END
$$$$
CHEMBL369590
 OpenBabel01252620473D

 76 79  0  0  1  0  0  0  0  0999 V2000
   -0.0167    1.3781    0.0096 C   0  0  0  0  0  0  0  0  0  0  0  0
    1.1709    2.0855    0.0021 C   0  0  0  0  0  0  0  0  0  0  0  0
    2.3773    1.4107   -0.0130 C   0  0  0  0  0  0  0  0  0  0  0  0
    2.3960    0.0285   -0.0201 C   0  0  0  0  0  0  0  0  0  0  0  0
    1.2084   -0.6789   -0.0117 C   0  0  0  0  0  0  0  0  0  0  0  0
    0.0021   -0.0041    0.0020 C   0  0  0  0  0  0  0  0  0  0  0  0
    3.7112   -0.7071   -0.0376 C   0  0  0  0  0  0  0  0  0  0  0  0
    4.1714   -0.9633    1.3989 C   0  0  1  0  0  0  0  0  0  0  0  0
    5.4216   -1.8045    1.3834 C   0  0  0  0  0  0  0  0  0  0  0  0
    6.4929   -1.2983    1.6167 O   0  0  0  0  0  0  0  0  0  0  0  0
    5.3350   -3.2775    1.0768 C   0  0  0  0  0  0  0  0  0  0  0  0
    6.7354   -3.8917    1.1254 C   0  0  0  0  0  0  0  0  0  0  0  0
    6.6488   -5.3647    0.8188 C   0  0  0  0  0  0  0  0  0  0  0  0
    5.5728   -5.8731    0.5845 O   0  0  0  0  0  0  0  0  0  0  0  0
    7.7669   -6.1170    0.8049 N   0  0  0  0  0  0  0  0  0  0  0  0
    7.6827   -7.5489    0.5069 C   0  0  2  0  0  0  0  0  0  0  0  0
    7.3570   -8.3183    1.7886 C   0  0  0  0  0  0  0  0  0  0  0  0
    5.9834   -7.9303    2.2722 C   0  0  0  0  0  0  0  0  0  0  0  0
    5.8317   -6.8660    3.1411 C   0  0  0  0  0  0  0  0  0  0  0  0
    4.5718   -6.5100    3.5847 C   0  0  0  0  0  0  0  0  0  0  0  0
    3.4635   -7.2181    3.1589 C   0  0  0  0  0  0  0  0  0  0  0  0
    3.6151   -8.2819    2.2893 C   0  0  0  0  0  0  0  0  0  0  0  0
    4.8747   -8.6351    1.8424 C   0  0  0  0  0  0  0  0  0  0  0  0
    9.0019   -8.0258   -0.0438 C   0  0  0  0  0  0  0  0  0  0  0  0
    9.9184   -7.2493   -0.1740 O   0  0  0  0  0  0  0  0  0  0  0  0
    9.1587   -9.3133   -0.3897 O   0  0  0  0  0  0  0  0  0  0  0  0
   10.4356   -9.6957   -0.9048 C   0  0  0  0  0  0  0  0  0  0  0  0
   10.4239  -11.1659   -1.2358 C   0  0  0  0  0  0  0  0  0  0  0  0
   10.7849  -12.0933   -0.2764 C   0  0  0  0  0  0  0  0  0  0  0  0
   10.7742  -13.4418   -0.5801 C   0  0  0  0  0  0  0  0  0  0  0  0
   10.4021  -13.8630   -1.8430 C   0  0  0  0  0  0  0  0  0  0  0  0
   10.0402  -12.9356   -2.8022 C   0  0  0  0  0  0  0  0  0  0  0  0
   10.0468  -11.5873   -2.4972 C   0  0  0  0  0  0  0  0  0  0  0  0
    4.4511    0.3151    2.0574 N   0  0  0  0  0  0  0  0  0  0  0  0
    3.4510    1.0070    2.6383 C   0  0  0  0  0  0  0  0  0  0  0  0
    2.3168    0.5703    2.6158 O   0  0  0  0  0  0  0  0  0  0  0  0
    3.7333    2.2972    3.3028 C   0  0  0  0  0  0  0  0  0  0  0  0
    5.0335    2.8043    3.3253 C   0  0  0  0  0  0  0  0  0  0  0  0
    5.2900    4.0090    3.9467 C   0  0  0  0  0  0  0  0  0  0  0  0
    4.2620    4.7140    4.5470 C   0  0  0  0  0  0  0  0  0  0  0  0
    2.9710    4.2167    4.5287 C   0  0  0  0  0  0  0  0  0  0  0  0
    2.6998    3.0162    3.9053 C   0  0  0  0  0  0  0  0  0  0  0  0
   -0.9591    1.9053    0.0259 H   0  0  0  0  0  0  0  0  0  0  0  0
    1.1563    3.1654    0.0076 H   0  0  0  0  0  0  0  0  0  0  0  0
    3.3051    1.9634   -0.0196 H   0  0  0  0  0  0  0  0  0  0  0  0
    1.2231   -1.7588   -0.0176 H   0  0  0  0  0  0  0  0  0  0  0  0
   -0.9258   -0.5567    0.0082 H   0  0  0  0  0  0  0  0  0  0  0  0
    3.5884   -1.6586   -0.5549 H   0  0  0  0  0  0  0  0  0  0  0  0
    4.4573   -0.1052   -0.5563 H   0  0  0  0  0  0  0  0  0  0  0  0
    3.3868   -1.4885    1.9436 H   0  0  0  0  0  0  0  0  0  0  0  0
    4.6984   -3.7654    1.8150 H   0  0  0  0  0  0  0  0  0  0  0  0
    4.9112   -3.4173    0.0824 H   0  0  0  0  0  0  0  0  0  0  0  0
    7.3720   -3.4038    0.3873 H   0  0  0  0  0  0  0  0  0  0  0  0
    7.1592   -3.7519    2.1198 H   0  0  0  0  0  0  0  0  0  0  0  0
    8.6274   -5.7104    0.9923 H   0  0  0  0  0  0  0  0  0  0  0  0
    6.8978   -7.7212   -0.2296 H   0  0  0  0  0  0  0  0  0  0  0  0
    7.3818   -9.3890    1.5859 H   0  0  0  0  0  0  0  0  0  0  0  0
    8.0936   -8.0765    2.5547 H   0  0  0  0  0  0  0  0  0  0  0  0
    6.6976   -6.3128    3.4738 H   0  0  0  0  0  0  0  0  0  0  0  0
    4.4533   -5.6789    4.2641 H   0  0  0  0  0  0  0  0  0  0  0  0
    2.4792   -6.9404    3.5060 H   0  0  0  0  0  0  0  0  0  0  0  0
    2.7493   -8.8353    1.9569 H   0  0  0  0  0  0  0  0  0  0  0  0
    4.9928   -9.4639    1.1600 H   0  0  0  0  0  0  0  0  0  0  0  0
   10.6505   -9.1220   -1.8063 H   0  0  0  0  0  0  0  0  0  0  0  0
   11.2032   -9.4979   -0.1566 H   0  0  0  0  0  0  0  0  0  0  0  0
   11.0757  -11.7643    0.7103 H   0  0  0  0  0  0  0  0  0  0  0  0
   11.0569  -14.1664    0.1693 H   0  0  0  0  0  0  0  0  0  0  0  0
   10.3944  -14.9165   -2.0805 H   0  0  0  0  0  0  0  0  0  0  0  0
    9.7497  -13.2646   -3.7890 H   0  0  0  0  0  0  0  0  0  0  0  0
    9.7605  -10.8630   -3.2454 H   0  0  0  0  0  0  0  0  0  0  0  0
    5.3562    0.6636    2.0753 H   0  0  0  0  0  0  0  0  0  0  0  0
    5.8369    2.2546    2.8577 H   0  0  0  0  0  0  0  0  0  0  0  0
    6.2956    4.4025    3.9649 H   0  0  0  0  0  0  0  0  0  0  0  0
    4.4682    5.6565    5.0325 H   0  0  0  0  0  0  0  0  0  0  0  0
    2.1730    4.7718    4.9994 H   0  0  0  0  0  0  0  0  0  0  0  0
    1.6908    2.6315    3.8874 H   0  0  0  0  0  0  0  0  0  0  0  0
  1  6  2  0  0  0  0
  1  2  1  0  0  0  0
  1 43  1  0  0  0  0
  2  3  2  0  0  0  0
  2 44  1  0  0  0  0
  3  4  1  0  0  0  0
  3 45  1  0  0  0  0
  4  5  2  0  0  0  0
  4  7  1  0  0  0  0
  5  6  1  0  0  0  0
  5 46  1  0  0  0  0
  6 47  1  0  0  0  0
  7  8  1  0  0  0  0
  7 48  1  0  0  0  0
  7 49  1  0  0  0  0
  8  9  1  0  0  0  0
  8 34  1  0  0  0  0
  8 50  1  1  0  0  0
  9 10  2  0  0  0  0
  9 11  1  0  0  0  0
 11 12  1  0  0  0  0
 11 51  1  0  0  0  0
 11 52  1  0  0  0  0
 12 13  1  0  0  0  0
 12 53  1  0  0  0  0
 12 54  1  0  0  0  0
 13 14  2  0  0  0  0
 13 15  1  0  0  0  0
 15 16  1  0  0  0  0
 15 55  1  0  0  0  0
 16 17  1  0  0  0  0
 16 24  1  0  0  0  0
 16 56  1  6  0  0  0
 17 18  1  0  0  0  0
 17 57  1  0  0  0  0
 17 58  1  0  0  0  0
 18 23  2  0  0  0  0
 18 19  1  0  0  0  0
 19 20  2  0  0  0  0
 19 59  1  0  0  0  0
 20 21  1  0  0  0  0
 20 60  1  0  0  0  0
 21 22  2  0  0  0  0
 21 61  1  0  0  0  0
 22 23  1  0  0  0  0
 22 62  1  0  0  0  0
 23 63  1  0  0  0  0
 24 25  2  0  0  0  0
 24 26  1  0  0  0  0
 26 27  1  0  0  0  0
 27 28  1  0  0  0  0
 27 64  1  0  0  0  0
 27 65  1  0  0  0  0
 28 33  2  0  0  0  0
 28 29  1  0  0  0  0
 29 30  2  0  0  0  0
 29 66  1  0  0  0  0
 30 31  1  0  0  0  0
 30 67  1  0  0  0  0
 31 32  2  0  0  0  0
 31 68  1  0  0  0  0
 32 33  1  0  0  0  0
 32 69  1  0  0  0  0
 33 70  1  0  0  0  0
 34 35  1  0  0  0  0
 34 71  1  0  0  0  0
 35 36  2  0  0  0  0
 35 37  1  0  0  0  0
 37 42  2  0  0  0  0
 37 38  1  0  0  0  0
 38 39  2  0  0  0  0
 38 72  1  0  0  0  0
 39 40  1  0  0  0  0
 39 73  1  0  0  0  0
 40 41  2  0  0  0  0
 40 74  1  0  0  0  0
 41 42  1  0  0  0  0
 41 75  1  0  0  0  0
 42 76  1  0  0  0  0
M  END
$$$$
CHEMBL282469
 OpenBabel01252620473D

 47 48  0  0  1  0  0  0  0  0999 V2000
   -1.8171    2.4927   -1.2914 C   0  0  0  0  0  0  0  0  0  0  0  0
   -1.1741    1.1269   -1.0423 C   0  0  1  0  0  0  0  0  0  0  0  0
   -0.3611    1.2336   -0.3242 H   0  0  0  0  0  0  0  0  0  0  0  0
   -2.2079    0.1776   -0.4933 C   0  0  0  0  0  0  0  0  0  0  0  0
   -2.6855   -0.6781   -1.2078 O   0  0  0  0  0  0  0  0  0  0  0  0
   -2.6016    0.2797    0.7916 N   0  0  0  0  0  0  0  0  0  0  0  0
   -2.1398    1.3946    1.6298 C   0  0  0  0  0  0  0  0  0  0  0  0
   -1.5146    0.8251    2.9071 C   0  0  0  0  0  0  0  0  0  0  0  0
   -2.5205   -0.1022    3.5930 C   0  0  0  0  0  0  0  0  0  0  0  0
   -2.8608   -1.2673    2.6609 C   0  0  0  0  0  0  0  0  0  0  0  0
   -3.5056   -0.7184    1.3791 C   0  0  2  0  0  0  0  0  0  0  0  0
   -3.7224   -1.8425    0.3990 C   0  0  0  0  0  0  0  0  0  0  0  0
   -2.7660   -2.4374   -0.0676 O   0  0  0  0  0  0  0  0  0  0  0  0
   -4.8543   -2.1571    0.0728 O   0  0  0  0  0  1  0  0  0  0  0  0
   -0.6464    0.5985   -2.3027 N   0  0  0  0  0  0  0  0  0  0  0  0
    0.5836    0.9570   -2.7212 C   0  0  0  0  0  0  0  0  0  0  0  0
    1.2534    1.7170   -2.0545 O   0  0  0  0  0  0  0  0  0  0  0  0
    1.1265    0.4134   -4.0177 C   0  0  2  0  0  0  0  0  0  0  0  0
    0.6406   -0.5352   -4.2458 H   0  0  0  0  0  0  0  0  0  0  0  0
    2.6352    0.1953   -3.8873 C   0  0  0  0  0  0  0  0  0  0  0  0
    3.1578   -0.4619   -5.1387 C   0  0  0  0  0  0  0  0  0  0  0  0
    3.1946   -1.8406   -5.2316 C   0  0  0  0  0  0  0  0  0  0  0  0
    3.6740   -2.4435   -6.3795 C   0  0  0  0  0  0  0  0  0  0  0  0
    4.1160   -1.6676   -7.4347 C   0  0  0  0  0  0  0  0  0  0  0  0
    4.0783   -0.2889   -7.3422 C   0  0  0  0  0  0  0  0  0  0  0  0
    3.5950    0.3140   -6.1960 C   0  0  0  0  0  0  0  0  0  0  0  0
    0.7998    1.5966   -5.3534 S   0  0  0  0  0  1  0  0  0  0  0  0
   -1.0517    3.2031   -1.6038 H   0  0  0  0  0  0  0  0  0  0  0  0
   -2.5703    2.4024   -2.0741 H   0  0  0  0  0  0  0  0  0  0  0  0
   -2.2874    2.8456   -0.3736 H   0  0  0  0  0  0  0  0  0  0  0  0
   -1.3950    1.9762    1.0864 H   0  0  0  0  0  0  0  0  0  0  0  0
   -2.9855    2.0313    1.8893 H   0  0  0  0  0  0  0  0  0  0  0  0
   -0.6161    0.2628    2.6530 H   0  0  0  0  0  0  0  0  0  0  0  0
   -1.2549    1.6419    3.5805 H   0  0  0  0  0  0  0  0  0  0  0  0
   -2.0872   -0.4895    4.5151 H   0  0  0  0  0  0  0  0  0  0  0  0
   -3.4285    0.4547    3.8246 H   0  0  0  0  0  0  0  0  0  0  0  0
   -1.9495   -1.8098    2.4091 H   0  0  0  0  0  0  0  0  0  0  0  0
   -3.5592   -1.9397    3.1590 H   0  0  0  0  0  0  0  0  0  0  0  0
   -4.4605   -0.2505    1.6186 H   0  0  0  0  0  0  0  0  0  0  0  0
   -1.1821   -0.0094   -2.8359 H   0  0  0  0  0  0  0  0  0  0  0  0
    3.1305    1.1562   -3.7476 H   0  0  0  0  0  0  0  0  0  0  0  0
    2.8368   -0.4456   -3.0290 H   0  0  0  0  0  0  0  0  0  0  0  0
    2.8493   -2.4468   -4.4072 H   0  0  0  0  0  0  0  0  0  0  0  0
    3.7034   -3.5207   -6.4518 H   0  0  0  0  0  0  0  0  0  0  0  0
    4.4912   -2.1386   -8.3313 H   0  0  0  0  0  0  0  0  0  0  0  0
    4.4240    0.3173   -8.1665 H   0  0  0  0  0  0  0  0  0  0  0  0
    3.5620    1.3911   -6.1251 H   0  0  0  0  0  0  0  0  0  0  0  0
  1  2  1  0  0  0  0
  1 28  1  0  0  0  0
  1 29  1  0  0  0  0
  1 30  1  0  0  0  0
  2  3  1  1  0  0  0
  2  4  1  0  0  0  0
  2 15  1  0  0  0  0
  4  5  2  0  0  0  0
  4  6  1  0  0  0  0
  6 11  1  0  0  0  0
  6  7  1  0  0  0  0
  7  8  1  0  0  0  0
  7 31  1  0  0  0  0
  7 32  1  0  0  0  0
  8  9  1  0  0  0  0
  8 33  1  0  0  0  0
  8 34  1  0  0  0  0
  9 10  1  0  0  0  0
  9 35  1  0  0  0  0
  9 36  1  0  0  0  0
 10 11  1  0  0  0  0
 10 37  1  0  0  0  0
 10 38  1  0  0  0  0
 11 12  1  0  0  0  0
 11 39  1  1  0  0  0
 12 13  2  0  0  0  0
 12 14  1  0  0  0  0
 15 16  1  0  0  0  0
 15 40  1  0  0  0  0
 16 17  2  0  0  0  0
 16 18  1  0  0  0  0
 18 19  1  6  0  0  0
 18 20  1  0  0  0  0
 18 27  1  0  0  0  0
 20 21  1  0  0  0  0
 20 41  1  0  0  0  0
 20 42  1  0  0  0  0
 21 26  2  0  0  0  0
 21 22  1  0  0  0  0
 22 23  2  0  0  0  0
 22 43  1  0  0  0  0
 23 24  1  0  0  0  0
 23 44  1  0  0  0  0
 24 25  2  0  0  0  0
 24 45  1  0  0  0  0
 25 26  1  0  0  0  0
 25 46  1  0  0  0  0
 26 47  1  0  0  0  0
M  END
$$$$
CHEMBL347863
 OpenBabel01252620473D

 51 52  0  0  1  0  0  0  0  0999 V2000
   -0.4385   -1.3542   -3.6746 C   0  0  0  0  0  0  0  0  0  0  0  0
   -0.3188   -2.2498   -2.4399 C   0  0  0  0  0  0  0  0  0  0  0  0
    0.1838   -1.4215   -1.2558 C   0  0  0  0  0  0  0  0  0  0  0  0
    0.3035   -2.3172   -0.0211 C   0  0  1  0  0  0  0  0  0  0  0  0
    0.9137   -1.5325    1.1115 C   0  0  0  0  0  0  0  0  0  0  0  0
    0.2000   -0.8860    1.8592 O   0  0  0  0  0  0  0  0  0  0  0  0
    2.1212   -1.5441    1.2801 O   0  0  0  0  0  1  0  0  0  0  0  0
   -1.0308   -2.7887    0.3729 N   0  3  0  0  0  0  0  0  0  0  0  0
   -0.8965   -3.9374    1.2787 C   0  0  1  0  0  0  0  0  0  0  0  0
   -0.1555   -4.6301    0.8797 H   0  0  0  0  0  0  0  0  0  0  0  0
   -0.4481   -3.4497    2.6579 C   0  0  0  0  0  0  0  0  0  0  0  0
   -2.2248   -4.6386    1.4013 C   0  0  0  0  0  0  0  0  0  0  0  0
   -3.2527   -3.9948    1.4002 O   0  0  0  0  0  0  0  0  0  0  0  0
   -2.2705   -5.9810    1.5120 N   0  0  0  0  0  0  0  0  0  0  0  0
   -3.4659   -6.8084    1.4987 C   0  0  1  0  0  0  0  0  0  0  0  0
   -4.6511   -6.3214    0.6919 C   0  0  0  0  0  0  0  0  0  0  0  0
   -5.7826   -7.3466    0.8744 C   0  0  0  0  0  0  0  0  0  0  0  0
   -5.3415   -8.7435    0.4479 C   0  0  0  0  0  0  0  0  0  0  0  0
   -4.0643   -9.1799    1.1832 C   0  0  0  0  0  0  0  0  0  0  0  0
   -2.9915   -8.1492    0.8750 C   0  0  2  0  0  0  0  0  0  0  0  0
   -1.6632   -8.3426    1.6230 C   0  0  0  0  0  0  0  0  0  0  0  0
   -1.1112   -6.8918    1.6639 C   0  0  2  0  0  0  0  0  0  0  0  0
   -0.4312   -6.6416    2.9853 C   0  0  0  0  0  0  0  0  0  0  0  0
   -1.0080   -6.0167    3.8590 O   0  0  0  0  0  0  0  0  0  0  0  0
    0.6956   -7.0641    3.1807 O   0  0  0  0  0  1  0  0  0  0  0  0
    0.5380   -0.9332   -3.9141 H   0  0  0  0  0  0  0  0  0  0  0  0
   -0.7966   -1.9443   -4.5182 H   0  0  0  0  0  0  0  0  0  0  0  0
   -1.1422   -0.5470   -3.4711 H   0  0  0  0  0  0  0  0  0  0  0  0
   -1.2953   -2.6708   -2.2004 H   0  0  0  0  0  0  0  0  0  0  0  0
    0.3848   -3.0570   -2.6434 H   0  0  0  0  0  0  0  0  0  0  0  0
    1.1603   -1.0006   -1.4953 H   0  0  0  0  0  0  0  0  0  0  0  0
   -0.5198   -0.6143   -1.0523 H   0  0  0  0  0  0  0  0  0  0  0  0
    0.9374   -3.1730   -0.2532 H   0  0  0  0  0  0  0  0  0  0  0  0
   -1.5248   -2.0453    0.8435 H   0  0  0  0  0  0  0  0  0  0  0  0
    0.0963   -4.2459    3.1655 H   0  0  0  0  0  0  0  0  0  0  0  0
    0.2011   -2.5817    2.5429 H   0  0  0  0  0  0  0  0  0  0  0  0
   -1.3223   -3.1740    3.2477 H   0  0  0  0  0  0  0  0  0  0  0  0
   -3.7904   -6.9864    2.5240 H   0  0  0  0  0  0  0  0  0  0  0  0
   -4.9724   -5.3459    1.0571 H   0  0  0  0  0  0  0  0  0  0  0  0
   -4.3795   -6.2527   -0.3614 H   0  0  0  0  0  0  0  0  0  0  0  0
   -6.0765   -7.3704    1.9238 H   0  0  0  0  0  0  0  0  0  0  0  0
   -6.6390   -7.0436    0.2721 H   0  0  0  0  0  0  0  0  0  0  0  0
   -6.1396   -9.4522    0.6690 H   0  0  0  0  0  0  0  0  0  0  0  0
   -5.1527   -8.7451   -0.6257 H   0  0  0  0  0  0  0  0  0  0  0  0
   -4.2480   -9.2144    2.2570 H   0  0  0  0  0  0  0  0  0  0  0  0
   -3.7489  -10.1611    0.8283 H   0  0  0  0  0  0  0  0  0  0  0  0
   -2.8385   -8.0535   -0.2000 H   0  0  0  0  0  0  0  0  0  0  0  0
   -1.8342   -8.7278    2.6283 H   0  0  0  0  0  0  0  0  0  0  0  0
   -0.9930   -8.9966    1.0651 H   0  0  0  0  0  0  0  0  0  0  0  0
   -0.4076   -6.7370    0.8459 H   0  0  0  0  0  0  0  0  0  0  0  0
   -1.5455   -3.0670   -0.4491 H   0  0  0  0  0  0  0  0  0  0  0  0
  1  2  1  0  0  0  0
  1 26  1  0  0  0  0
  1 27  1  0  0  0  0
  1 28  1  0  0  0  0
  2  3  1  0  0  0  0
  2 29  1  0  0  0  0
  2 30  1  0  0  0  0
  3  4  1  0  0  0  0
  3 31  1  0  0  0  0
  3 32  1  0  0  0  0
  4  5  1  0  0  0  0
  4  8  1  0  0  0  0
  4 33  1  6  0  0  0
  5  6  2  0  0  0  0
  5  7  1  0  0  0  0
  8  9  1  0  0  0  0
  8 34  1  0  0  0  0
  8 51  1  0  0  0  0
  9 10  1  6  0  0  0
  9 11  1  0  0  0  0
  9 12  1  0  0  0  0
 11 35  1  0  0  0  0
 11 36  1  0  0  0  0
 11 37  1  0  0  0  0
 12 13  2  0  0  0  0
 12 14  1  0  0  0  0
 14 22  1  0  0  0  0
 14 15  1  0  0  0  0
 15 20  1  0  0  0  0
 15 16  1  0  0  0  0
 15 38  1  1  0  0  0
 16 17  1  0  0  0  0
 16 39  1  0  0  0  0
 16 40  1  0  0  0  0
 17 18  1  0  0  0  0
 17 41  1  0  0  0  0
 17 42  1  0  0  0  0
 18 19  1  0  0  0  0
 18 43  1  0  0  0  0
 18 44  1  0  0  0  0
 19 20  1  0  0  0  0
 19 45  1  0  0  0  0
 19 46  1  0  0  0  0
 20 21  1  0  0  0  0
 20 47  1  6  0  0  0
 21 22  1  0  0  0  0
 21 48  1  0  0  0  0
 21 49  1  0  0  0  0
 22 23  1  0  0  0  0
 22 50  1  6  0  0  0
 23 24  2  0  0  0  0
 23 25  1  0  0  0  0
M  CHG  1   8   1
M  END
$$$$
CHEMBL107275
 OpenBabel01252620473D

 51 53  0  0  1  0  0  0  0  0999 V2000
   -0.0167    1.3781    0.0096 C   0  0  0  0  0  0  0  0  0  0  0  0
    1.1709    2.0855    0.0021 C   0  0  0  0  0  0  0  0  0  0  0  0
    2.3773    1.4107   -0.0130 C   0  0  0  0  0  0  0  0  0  0  0  0
    2.3960    0.0285   -0.0201 C   0  0  0  0  0  0  0  0  0  0  0  0
    1.2084   -0.6789   -0.0117 C   0  0  0  0  0  0  0  0  0  0  0  0
    0.0021   -0.0041    0.0020 C   0  0  0  0  0  0  0  0  0  0  0  0
    3.7112   -0.7071   -0.0376 C   0  0  0  0  0  0  0  0  0  0  0  0
    4.1714   -0.9633    1.3989 C   0  0  1  0  0  0  0  0  0  0  0  0
    3.3868   -1.4885    1.9436 H   0  0  0  0  0  0  0  0  0  0  0  0
    5.4216   -1.8045    1.3834 C   0  0  0  0  0  0  0  0  0  0  0  0
    6.2386   -1.6604    0.4987 O   0  0  0  0  0  0  0  0  0  0  0  0
    5.6319   -2.7171    2.3527 N   0  0  0  0  0  0  0  0  0  0  0  0
    6.8448   -3.5333    2.3376 C   0  0  1  0  0  0  0  0  0  0  0  0
    7.6629   -2.9057    1.9441 H   0  0  0  0  0  0  0  0  0  0  0  0
    7.2268   -3.9718    3.7470 C   0  0  0  0  0  0  0  0  0  0  0  0
    5.9885   -4.3247    4.5619 C   0  0  0  0  0  0  0  0  0  0  0  0
    5.0853   -5.2963    3.8076 C   0  0  0  0  0  0  0  0  0  0  0  0
    5.9337   -6.3608    3.0981 C   0  0  0  0  0  0  0  0  0  0  0  0
    7.0612   -6.9117    3.9807 C   0  0  0  0  0  0  0  0  0  0  0  0
    6.6222   -8.3339    3.5994 C   0  0  0  0  0  0  0  0  0  0  0  0
    5.2706   -7.7421    3.1782 C   0  0  0  0  0  0  0  0  0  0  0  0
    6.3681   -5.9492    1.7732 N   0  0  0  0  0  0  0  0  0  0  0  0
    6.6811   -4.7013    1.4195 C   0  0  0  0  0  0  0  0  0  0  0  0
    6.8496   -4.5020    0.2266 O   0  0  0  0  0  0  0  0  0  0  0  0
    6.4960   -6.9571    0.7118 C   0  0  0  0  0  0  0  0  0  0  0  0
    5.1873   -7.0792   -0.0253 C   0  0  0  0  0  0  0  0  0  0  0  0
    4.2362   -6.3906    0.3029 O   0  0  0  0  0  0  0  0  0  0  0  0
    5.0797   -7.8666   -0.9499 O   0  0  0  0  0  1  0  0  0  0  0  0
    4.5178    0.6197    2.2143 S   0  0  0  0  0  1  0  0  0  0  0  0
   -0.9591    1.9053    0.0259 H   0  0  0  0  0  0  0  0  0  0  0  0
    1.1563    3.1654    0.0076 H   0  0  0  0  0  0  0  0  0  0  0  0
    3.3051    1.9634   -0.0196 H   0  0  0  0  0  0  0  0  0  0  0  0
    1.2231   -1.7588   -0.0176 H   0  0  0  0  0  0  0  0  0  0  0  0
   -0.9258   -0.5567    0.0082 H   0  0  0  0  0  0  0  0  0  0  0  0
    3.5884   -1.6586   -0.5549 H   0  0  0  0  0  0  0  0  0  0  0  0
    4.4573   -0.1052   -0.5563 H   0  0  0  0  0  0  0  0  0  0  0  0
    4.9785   -2.8324    3.0603 H   0  0  0  0  0  0  0  0  0  0  0  0
    7.9063   -4.8233    3.6993 H   0  0  0  0  0  0  0  0  0  0  0  0
    7.7583   -3.1485    4.2442 H   0  0  0  0  0  0  0  0  0  0  0  0
    6.3002   -4.7830    5.5090 H   0  0  0  0  0  0  0  0  0  0  0  0
    5.4315   -3.4150    4.8046 H   0  0  0  0  0  0  0  0  0  0  0  0
    4.4199   -5.7992    4.5195 H   0  0  0  0  0  0  0  0  0  0  0  0
    4.4726   -4.7727    3.0767 H   0  0  0  0  0  0  0  0  0  0  0  0
    8.0621   -6.6613    3.6227 H   0  0  0  0  0  0  0  0  0  0  0  0
    6.9346   -6.6896    5.0420 H   0  0  0  0  0  0  0  0  0  0  0  0
    7.1946   -8.7669    2.7796 H   0  0  0  0  0  0  0  0  0  0  0  0
    6.5537   -9.0105    4.4551 H   0  0  0  0  0  0  0  0  0  0  0  0
    4.5172   -7.8001    3.9779 H   0  0  0  0  0  0  0  0  0  0  0  0
    4.8735   -8.1304    2.2477 H   0  0  0  0  0  0  0  0  0  0  0  0
    7.2783   -6.6544    0.0157 H   0  0  0  0  0  0  0  0  0  0  0  0
    6.7553   -7.9191    1.1537 H   0  0  0  0  0  0  0  0  0  0  0  0
  1  6  2  0  0  0  0
  1  2  1  0  0  0  0
  1 30  1  0  0  0  0
  2  3  2  0  0  0  0
  2 31  1  0  0  0  0
  3  4  1  0  0  0  0
  3 32  1  0  0  0  0
  4  5  2  0  0  0  0
  4  7  1  0  0  0  0
  5  6  1  0  0  0  0
  5 33  1  0  0  0  0
  6 34  1  0  0  0  0
  7  8  1  0  0  0  0
  7 35  1  0  0  0  0
  7 36  1  0  0  0  0
  8  9  1  1  0  0  0
  8 10  1  0  0  0  0
  8 29  1  0  0  0  0
 10 11  2  0  0  0  0
 10 12  1  0  0  0  0
 12 13  1  0  0  0  0
 12 37  1  0  0  0  0
 13 14  1  6  0  0  0
 13 23  1  0  0  0  0
 13 15  1  0  0  0  0
 15 16  1  0  0  0  0
 15 38  1  0  0  0  0
 15 39  1  0  0  0  0
 16 17  1  0  0  0  0
 16 40  1  0  0  0  0
 16 41  1  0  0  0  0
 17 18  1  0  0  0  0
 17 42  1  0  0  0  0
 17 43  1  0  0  0  0
 18 21  1  0  0  0  0
 18 19  1  0  0  0  0
 18 22  1  0  0  0  0
 19 20  1  0  0  0  0
 19 44  1  0  0  0  0
 19 45  1  0  0  0  0
 20 21  1  0  0  0  0
 20 46  1  0  0  0  0
 20 47  1  0  0  0  0
 21 48  1  0  0  0  0
 21 49  1  0  0  0  0
 22 23  1  0  0  0  0
 22 25  1  0  0  0  0
 23 24  2  0  0  0  0
 25 26  1  0  0  0  0
 25 50  1  0  0  0  0
 25 51  1  0  0  0  0
 26 27  2  0  0  0  0
 26 28  1  0  0  0  0
M  END
$$$$
CHEMBL94173
 OpenBabel01252620473D

 60 61  0  0  1  0  0  0  0  0999 V2000
    1.2666   -2.8242   -0.1289 C   0  0  0  0  0  0  0  0  0  0  0  0
    0.9244   -2.2645   -1.5111 C   0  0  0  0  0  0  0  0  0  0  0  0
    0.7893   -0.7428   -1.4260 C   0  0  2  0  0  0  0  0  0  0  0  0
    0.0703   -0.4849   -0.6485 H   0  0  0  0  0  0  0  0  0  0  0  0
    0.3037   -0.1980   -2.7707 C   0  0  0  0  0  0  0  0  0  0  0  0
    2.1489   -0.1282   -1.0877 C   0  0  2  0  0  0  0  0  0  0  0  0
    1.9916    1.3562   -0.8805 C   0  0  0  0  0  0  0  0  0  0  0  0
    2.2132    2.1228   -1.7939 O   0  0  0  0  0  0  0  0  0  0  0  0
    1.6046    1.8319    0.3197 N   0  0  0  0  0  0  0  0  0  0  0  0
    1.3455    3.2635    0.4913 C   0  0  1  0  0  0  0  0  0  0  0  0
    0.9400    3.6728   -0.4340 H   0  0  0  0  0  0  0  0  0  0  0  0
    0.3373    3.4671    1.6240 C   0  0  0  0  0  0  0  0  0  0  0  0
   -0.9904    2.8747    1.2272 C   0  0  0  0  0  0  0  0  0  0  0  0
   -1.8730    3.6136    0.4603 C   0  0  0  0  0  0  0  0  0  0  0  0
   -3.0903    3.0760    0.0940 C   0  0  0  0  0  0  0  0  0  0  0  0
   -3.4294    1.7865    0.4984 C   0  0  0  0  0  0  0  0  0  0  0  0
   -2.5365    1.0466    1.2709 C   0  0  0  0  0  0  0  0  0  0  0  0
   -1.3195    1.5920    1.6266 C   0  0  0  0  0  0  0  0  0  0  0  0
   -4.7370    1.2033    0.1081 C   0  0  0  0  0  0  0  0  0  0  0  0
   -5.6277    1.9412   -0.6688 C   0  0  0  0  0  0  0  0  0  0  0  0
   -6.8423    1.3937   -1.0293 C   0  0  0  0  0  0  0  0  0  0  0  0
   -7.1761    0.1152   -0.6204 C   0  0  0  0  0  0  0  0  0  0  0  0
   -6.2959   -0.6215    0.1514 C   0  0  0  0  0  0  0  0  0  0  0  0
   -5.0760   -0.0863    0.5125 C   0  0  0  0  0  0  0  0  0  0  0  0
    2.6326    3.9698    0.8314 C   0  0  0  0  0  0  0  0  0  0  0  0
    3.6701    3.3360    0.9221 O   0  0  0  0  0  0  0  0  0  0  0  0
    2.6363    5.1749    1.0159 O   0  0  0  0  0  1  0  0  0  0  0  0
    3.0852   -0.3718   -2.1931 N   0  3  0  0  0  0  0  0  0  0  0  0
    4.4241    0.0984   -1.8134 C   0  0  1  0  0  0  0  0  0  0  0  0
    4.3671    1.1396   -1.4962 H   0  0  0  0  0  0  0  0  0  0  0  0
    4.9576   -0.7569   -0.6625 C   0  0  0  0  0  0  0  0  0  0  0  0
    5.3509   -0.0165   -2.9962 C   0  0  0  0  0  0  0  0  0  0  0  0
    4.9347   -0.4498   -4.0570 O   0  0  0  0  0  0  0  0  0  0  0  0
    6.5170    0.3239   -2.8922 O   0  0  0  0  0  1  0  0  0  0  0  0
    2.2581   -2.4813    0.1667 H   0  0  0  0  0  0  0  0  0  0  0  0
    0.5308   -2.4765    0.5962 H   0  0  0  0  0  0  0  0  0  0  0  0
    1.2546   -3.9135   -0.1649 H   0  0  0  0  0  0  0  0  0  0  0  0
    1.7181   -2.5200   -2.2132 H   0  0  0  0  0  0  0  0  0  0  0  0
   -0.0166   -2.6942   -1.8544 H   0  0  0  0  0  0  0  0  0  0  0  0
   -0.7029   -0.5659   -2.9697 H   0  0  0  0  0  0  0  0  0  0  0  0
    0.2926    0.8915   -2.7387 H   0  0  0  0  0  0  0  0  0  0  0  0
    0.9754   -0.5313   -3.5618 H   0  0  0  0  0  0  0  0  0  0  0  0
    2.5366   -0.5831   -0.1762 H   0  0  0  0  0  0  0  0  0  0  0  0
    1.4977    1.2263    1.0698 H   0  0  0  0  0  0  0  0  0  0  0  0
    0.6999    2.9745    2.5261 H   0  0  0  0  0  0  0  0  0  0  0  0
    0.2167    4.5333    1.8157 H   0  0  0  0  0  0  0  0  0  0  0  0
   -1.6093    4.6132    0.1477 H   0  0  0  0  0  0  0  0  0  0  0  0
   -3.7789    3.6540   -0.5045 H   0  0  0  0  0  0  0  0  0  0  0  0
   -2.7945    0.0467    1.5873 H   0  0  0  0  0  0  0  0  0  0  0  0
   -0.6247    1.0177    2.2214 H   0  0  0  0  0  0  0  0  0  0  0  0
   -5.3683    2.9398   -0.9881 H   0  0  0  0  0  0  0  0  0  0  0  0
   -7.5334    1.9648   -1.6315 H   0  0  0  0  0  0  0  0  0  0  0  0
   -8.1278   -0.3092   -0.9044 H   0  0  0  0  0  0  0  0  0  0  0  0
   -6.5618   -1.6192    0.4683 H   0  0  0  0  0  0  0  0  0  0  0  0
   -4.3876   -0.6640    1.1114 H   0  0  0  0  0  0  0  0  0  0  0  0
    3.1199   -1.3603   -2.3928 H   0  0  0  0  0  0  0  0  0  0  0  0
    4.9008   -1.8105   -0.9361 H   0  0  0  0  0  0  0  0  0  0  0  0
    5.9949   -0.4892   -0.4613 H   0  0  0  0  0  0  0  0  0  0  0  0
    4.3572   -0.5805    0.2300 H   0  0  0  0  0  0  0  0  0  0  0  0
    2.7739    0.1263   -3.0135 H   0  0  0  0  0  0  0  0  0  0  0  0
  1  2  1  0  0  0  0
  1 35  1  0  0  0  0
  1 36  1  0  0  0  0
  1 37  1  0  0  0  0
  2  3  1  0  0  0  0
  2 38  1  0  0  0  0
  2 39  1  0  0  0  0
  3  4  1  1  0  0  0
  3  5  1  0  0  0  0
  3  6  1  0  0  0  0
  5 40  1  0  0  0  0
  5 41  1  0  0  0  0
  5 42  1  0  0  0  0
  6  7  1  0  0  0  0
  6 28  1  0  0  0  0
  6 43  1  1  0  0  0
  7  8  2  0  0  0  0
  7  9  1  0  0  0  0
  9 10  1  0  0  0  0
  9 44  1  0  0  0  0
 10 11  1  6  0  0  0
 10 12  1  0  0  0  0
 10 25  1  0  0  0  0
 12 13  1  0  0  0  0
 12 45  1  0  0  0  0
 12 46  1  0  0  0  0
 13 18  2  0  0  0  0
 13 14  1  0  0  0  0
 14 15  2  0  0  0  0
 14 47  1  0  0  0  0
 15 16  1  0  0  0  0
 15 48  1  0  0  0  0
 16 17  2  0  0  0  0
 16 19  1  0  0  0  0
 17 18  1  0  0  0  0
 17 49  1  0  0  0  0
 18 50  1  0  0  0  0
 19 24  2  0  0  0  0
 19 20  1  0  0  0  0
 20 21  2  0  0  0  0
 20 51  1  0  0  0  0
 21 22  1  0  0  0  0
 21 52  1  0  0  0  0
 22 23  2  0  0  0  0
 22 53  1  0  0  0  0
 23 24  1  0  0  0  0
 23 54  1  0  0  0  0
 24 55  1  0  0  0  0
 25 26  2  0  0  0  0
 25 27  1  0  0  0  0
 28 29  1  0  0  0  0
 28 56  1  0  0  0  0
 28 60  1  0  0  0  0
 29 30  1  1  0  0  0
 29 31  1  0  0  0  0
 29 32  1  0  0  0  0
 31 57  1  0  0  0  0
 31 58  1  0  0  0  0
 31 59  1  0  0  0  0
 32 33  2  0  0  0  0
 32 34  1  0  0  0  0
M  CHG  1  28   1
M  END
$$$$
CHEMBL107695
 OpenBabel01252620473D

 52 54  0  0  1  0  0  0  0  0999 V2000
    1.5479    4.1111   -0.0321 C   0  0  0  0  0  0  0  0  0  0  0  0
    1.7806    3.2800    1.0477 C   0  0  0  0  0  0  0  0  0  0  0  0
    2.9176    2.4946    1.0831 C   0  0  0  0  0  0  0  0  0  0  0  0
    3.8218    2.5400    0.0384 C   0  0  0  0  0  0  0  0  0  0  0  0
    3.5886    3.3704   -1.0418 C   0  0  0  0  0  0  0  0  0  0  0  0
    2.4523    4.1568   -1.0766 C   0  0  0  0  0  0  0  0  0  0  0  0
    5.0618    1.6845    0.0774 C   0  0  0  0  0  0  0  0  0  0  0  0
    4.7683    0.3310   -0.5728 C   0  0  0  0  0  0  0  0  0  0  0  0
    6.0273   -0.5375   -0.5332 C   0  0  2  0  0  0  0  0  0  0  0  0
    6.8535   -0.0011   -0.9999 H   0  0  0  0  0  0  0  0  0  0  0  0
    5.7756   -1.8214   -1.2810 C   0  0  0  0  0  0  0  0  0  0  0  0
    5.7934   -1.8303   -2.5001 O   0  0  0  0  0  0  0  0  0  0  0  0
    5.5541   -2.8512   -0.6670 O   0  0  0  0  0  1  0  0  0  0  0  0
    6.3679   -0.8427    0.8628 N   0  3  0  0  0  0  0  0  0  0  0  0
    7.6463   -1.5649    0.9083 C   0  0  1  0  0  0  0  0  0  0  0  0
    8.7552   -0.6528    0.4242 C   0  0  0  0  0  0  0  0  0  0  0  0
   10.1276   -1.2943    0.4541 C   0  0  0  0  0  0  0  0  0  0  0  0
   10.7982   -0.9854   -0.7552 C   0  0  0  0  0  0  0  0  0  0  0  0
   12.0869   -1.3740   -1.0012 C   0  0  0  0  0  0  0  0  0  0  0  0
   12.7728   -2.0843   -0.0321 C   0  0  0  0  0  0  0  0  0  0  0  0
   12.1182   -2.4034    1.1302 C   0  0  0  0  0  0  0  0  0  0  0  0
   10.7761   -2.0353    1.3538 C   0  0  0  0  0  0  0  0  0  0  0  0
   10.2515   -2.6455    2.6171 C   0  0  0  0  0  0  0  0  0  0  0  0
    8.8676   -2.5196    2.9439 N   0  0  0  0  0  0  0  0  0  0  0  0
    7.9138   -2.0087    2.3091 C   0  0  0  0  0  0  0  0  0  0  0  0
    6.9516   -1.8257    3.0243 O   0  0  0  0  0  0  0  0  0  0  0  0
    8.4975   -3.0848    4.2438 C   0  0  0  0  0  0  0  0  0  0  0  0
    8.6305   -2.0261    5.3081 C   0  0  0  0  0  0  0  0  0  0  0  0
    9.0002   -0.9036    5.0084 O   0  0  0  0  0  0  0  0  0  0  0  0
    8.3685   -2.2921    6.4687 O   0  0  0  0  0  1  0  0  0  0  0  0
    0.6574    4.7213   -0.0618 H   0  0  0  0  0  0  0  0  0  0  0  0
    1.0742    3.2445    1.8639 H   0  0  0  0  0  0  0  0  0  0  0  0
    3.0997    1.8458    1.9271 H   0  0  0  0  0  0  0  0  0  0  0  0
    4.2952    3.4061   -1.8579 H   0  0  0  0  0  0  0  0  0  0  0  0
    2.2704    4.8059   -1.9204 H   0  0  0  0  0  0  0  0  0  0  0  0
    5.8642    2.1827   -0.4668 H   0  0  0  0  0  0  0  0  0  0  0  0
    5.3655    1.5319    1.1131 H   0  0  0  0  0  0  0  0  0  0  0  0
    3.9660   -0.1671   -0.0286 H   0  0  0  0  0  0  0  0  0  0  0  0
    4.4647    0.4837   -1.6084 H   0  0  0  0  0  0  0  0  0  0  0  0
    6.4486    0.0169    1.3850 H   0  0  0  0  0  0  0  0  0  0  0  0
    7.5908   -2.4378    0.2577 H   0  0  0  0  0  0  0  0  0  0  0  0
    8.5347   -0.3491   -0.5991 H   0  0  0  0  0  0  0  0  0  0  0  0
    8.7730    0.2377    1.0526 H   0  0  0  0  0  0  0  0  0  0  0  0
   10.2721   -0.4220   -1.5117 H   0  0  0  0  0  0  0  0  0  0  0  0
   12.5622   -1.1297   -1.9397 H   0  0  0  0  0  0  0  0  0  0  0  0
   13.7996   -2.3810   -0.1873 H   0  0  0  0  0  0  0  0  0  0  0  0
   12.6461   -2.9524    1.8960 H   0  0  0  0  0  0  0  0  0  0  0  0
   10.4825   -3.7102    2.5844 H   0  0  0  0  0  0  0  0  0  0  0  0
   10.8209   -2.2213    3.4441 H   0  0  0  0  0  0  0  0  0  0  0  0
    7.4661   -3.4355    4.2072 H   0  0  0  0  0  0  0  0  0  0  0  0
    9.1573   -3.9202    4.4780 H   0  0  0  0  0  0  0  0  0  0  0  0
    5.6432   -1.4158    1.2683 H   0  0  0  0  0  0  0  0  0  0  0  0
  1  6  2  0  0  0  0
  1  2  1  0  0  0  0
  1 31  1  0  0  0  0
  2  3  2  0  0  0  0
  2 32  1  0  0  0  0
  3  4  1  0  0  0  0
  3 33  1  0  0  0  0
  4  5  2  0  0  0  0
  4  7  1  0  0  0  0
  5  6  1  0  0  0  0
  5 34  1  0  0  0  0
  6 35  1  0  0  0  0
  7  8  1  0  0  0  0
  7 36  1  0  0  0  0
  7 37  1  0  0  0  0
  8  9  1  0  0  0  0
  8 38  1  0  0  0  0
  8 39  1  0  0  0  0
  9 10  1  6  0  0  0
  9 11  1  0  0  0  0
  9 14  1  0  0  0  0
 11 12  2  0  0  0  0
 11 13  1  0  0  0  0
 14 15  1  0  0  0  0
 14 40  1  0  0  0  0
 14 52  1  0  0  0  0
 15 25  1  0  0  0  0
 15 16  1  0  0  0  0
 15 41  1  6  0  0  0
 16 17  1  0  0  0  0
 16 42  1  0  0  0  0
 16 43  1  0  0  0  0
 17 22  2  0  0  0  0
 17 18  1  0  0  0  0
 18 19  2  0  0  0  0
 18 44  1  0  0  0  0
 19 20  1  0  0  0  0
 19 45  1  0  0  0  0
 20 21  2  0  0  0  0
 20 46  1  0  0  0  0
 21 22  1  0  0  0  0
 21 47  1  0  0  0  0
 22 23  1  0  0  0  0
 23 24  1  0  0  0  0
 23 48  1  0  0  0  0
 23 49  1  0  0  0  0
 24 25  1  0  0  0  0
 24 27  1  0  0  0  0
 25 26  2  0  0  0  0
 27 28  1  0  0  0  0
 27 50  1  0  0  0  0
 27 51  1  0  0  0  0
 28 29  2  0  0  0  0
 28 30  1  0  0  0  0
M  CHG  1  14   1
M  END
$$$$
CHEMBL61640
 OpenBabel01252620473D

 62 66  0  0  1  0  0  0  0  0999 V2000
    5.2636  -11.2746   -0.4642 C   0  0  0  0  0  0  0  0  0  0  0  0
    5.2921  -10.5518   -1.6432 C   0  0  0  0  0  0  0  0  0  0  0  0
    5.6213   -9.2115   -1.6262 C   0  0  0  0  0  0  0  0  0  0  0  0
    5.9252   -8.5867   -0.4184 C   0  0  0  0  0  0  0  0  0  0  0  0
    5.8950   -9.3197    0.7662 C   0  0  0  0  0  0  0  0  0  0  0  0
    5.5645  -10.6594    0.7375 C   0  0  0  0  0  0  0  0  0  0  0  0
    6.2804   -7.1461   -0.3939 C   0  0  0  0  0  0  0  0  0  0  0  0
    6.3058   -6.4111   -1.5776 C   0  0  0  0  0  0  0  0  0  0  0  0
    6.6366   -5.0731   -1.5464 C   0  0  0  0  0  0  0  0  0  0  0  0
    6.9442   -4.4547   -0.3445 C   0  0  0  0  0  0  0  0  0  0  0  0
    6.9206   -5.1799    0.8333 C   0  0  0  0  0  0  0  0  0  0  0  0
    6.5842   -6.5211    0.8122 C   0  0  0  0  0  0  0  0  0  0  0  0
    7.2911   -4.2818    1.9944 C   0  0  0  0  0  0  0  0  0  0  0  0
    7.9653   -3.0503    1.3536 C   0  0  0  0  0  0  0  0  0  0  0  0
    7.3319   -3.0203   -0.0535 C   0  0  1  0  0  0  0  0  0  0  0  0
    8.3498   -2.5261   -1.0834 C   0  0  1  0  0  0  0  0  0  0  0  0
    8.7834   -1.1022   -0.7293 C   0  0  0  0  0  0  0  0  0  0  0  0
    9.8089   -0.4321   -2.0672 S   0  0  0  0  0  0  0  0  0  0  0  0
    9.5527   -3.4339   -1.0764 C   0  0  0  0  0  0  0  0  0  0  0  0
    9.5920   -4.3827   -0.3220 O   0  0  0  0  0  0  0  0  0  0  0  0
   10.5847   -3.1915   -1.9086 N   0  0  0  0  0  0  0  0  0  0  0  0
   11.7541   -4.0740   -1.9018 C   0  0  2  0  0  0  0  0  0  0  0  0
   12.9759   -3.3055   -2.4092 C   0  0  0  0  0  0  0  0  0  0  0  0
   13.3079   -2.1963   -1.4445 C   0  0  0  0  0  0  0  0  0  0  0  0
   12.9065   -0.9181   -1.5286 C   0  0  0  0  0  0  0  0  0  0  0  0
   13.4042   -0.2024   -0.4739 N   0  0  0  0  0  0  0  0  0  0  0  0
   13.2495    0.7426   -0.3193 H   0  0  0  0  0  0  0  0  0  0  0  0
   14.1572   -1.0235    0.3353 C   0  0  0  0  0  0  0  0  0  0  0  0
   14.1247   -2.3099   -0.2338 C   0  0  0  0  0  0  0  0  0  0  0  0
   14.8050   -3.3615    0.3826 C   0  0  0  0  0  0  0  0  0  0  0  0
   15.4971   -3.1364    1.5393 C   0  0  0  0  0  0  0  0  0  0  0  0
   15.5288   -1.8703    2.1068 C   0  0  0  0  0  0  0  0  0  0  0  0
   14.8721   -0.8160    1.5101 C   0  0  0  0  0  0  0  0  0  0  0  0
   11.4961   -5.2566   -2.7995 C   0  0  0  0  0  0  0  0  0  0  0  0
   10.5190   -5.2668   -3.5286 O   0  0  0  0  0  0  0  0  0  0  0  0
   12.2645   -6.2032   -2.7967 O   0  0  0  0  0  1  0  0  0  0  0  0
    5.0011  -12.3220   -0.4816 H   0  0  0  0  0  0  0  0  0  0  0  0
    5.0567  -11.0371   -2.5789 H   0  0  0  0  0  0  0  0  0  0  0  0
    5.6436   -8.6482   -2.5474 H   0  0  0  0  0  0  0  0  0  0  0  0
    6.1301   -8.8404    1.7051 H   0  0  0  0  0  0  0  0  0  0  0  0
    5.5405  -11.2284    1.6552 H   0  0  0  0  0  0  0  0  0  0  0  0
    6.0673   -6.8882   -2.5166 H   0  0  0  0  0  0  0  0  0  0  0  0
    6.6566   -4.5034   -2.4638 H   0  0  0  0  0  0  0  0  0  0  0  0
    6.5614   -7.0857    1.7325 H   0  0  0  0  0  0  0  0  0  0  0  0
    6.3968   -3.9819    2.5408 H   0  0  0  0  0  0  0  0  0  0  0  0
    7.9883   -4.7915    2.6594 H   0  0  0  0  0  0  0  0  0  0  0  0
    7.7222   -2.1435    1.9073 H   0  0  0  0  0  0  0  0  0  0  0  0
    9.0446   -3.1890    1.2897 H   0  0  0  0  0  0  0  0  0  0  0  0
    6.4486   -2.3816   -0.0570 H   0  0  0  0  0  0  0  0  0  0  0  0
    7.8960   -2.5319   -2.0744 H   0  0  0  0  0  0  0  0  0  0  0  0
    7.9011   -0.4756   -0.5991 H   0  0  0  0  0  0  0  0  0  0  0  0
    9.3584   -1.1172    0.1966 H   0  0  0  0  0  0  0  0  0  0  0  0
   10.1243    0.8058   -1.6465 H   0  0  0  0  0  0  0  0  0  0  0  0
   10.5533   -2.4326   -2.5120 H   0  0  0  0  0  0  0  0  0  0  0  0
   11.9403   -4.4226   -0.8860 H   0  0  0  0  0  0  0  0  0  0  0  0
   13.8250   -3.9844   -2.4884 H   0  0  0  0  0  0  0  0  0  0  0  0
   12.7572   -2.8813   -3.3892 H   0  0  0  0  0  0  0  0  0  0  0  0
   12.2834   -0.5144   -2.3129 H   0  0  0  0  0  0  0  0  0  0  0  0
   14.7841   -4.3496   -0.0529 H   0  0  0  0  0  0  0  0  0  0  0  0
   16.0232   -3.9504    2.0158 H   0  0  0  0  0  0  0  0  0  0  0  0
   16.0795   -1.7082    3.0216 H   0  0  0  0  0  0  0  0  0  0  0  0
   14.9018    0.1653    1.9602 H   0  0  0  0  0  0  0  0  0  0  0  0
  1  6  2  0  0  0  0
  1  2  1  0  0  0  0
  1 37  1  0  0  0  0
  2  3  2  0  0  0  0
  2 38  1  0  0  0  0
  3  4  1  0  0  0  0
  3 39  1  0  0  0  0
  4  5  2  0  0  0  0
  4  7  1  0  0  0  0
  5  6  1  0  0  0  0
  5 40  1  0  0  0  0
  6 41  1  0  0  0  0
  7 12  2  0  0  0  0
  7  8  1  0  0  0  0
  8  9  2  0  0  0  0
  8 42  1  0  0  0  0
  9 10  1  0  0  0  0
  9 43  1  0  0  0  0
 10 15  1  0  0  0  0
 10 11  2  0  0  0  0
 11 12  1  0  0  0  0
 11 13  1  0  0  0  0
 12 44  1  0  0  0  0
 13 14  1  0  0  0  0
 13 45  1  0  0  0  0
 13 46  1  0  0  0  0
 14 15  1  0  0  0  0
 14 47  1  0  0  0  0
 14 48  1  0  0  0  0
 15 16  1  0  0  0  0
 15 49  1  6  0  0  0
 16 17  1  0  0  0  0
 16 19  1  0  0  0  0
 16 50  1  6  0  0  0
 17 18  1  0  0  0  0
 17 51  1  0  0  0  0
 17 52  1  0  0  0  0
 18 53  1  0  0  0  0
 19 20  2  0  0  0  0
 19 21  1  0  0  0  0
 21 22  1  0  0  0  0
 21 54  1  0  0  0  0
 22 23  1  0  0  0  0
 22 34  1  0  0  0  0
 22 55  1  1  0  0  0
 23 24  1  0  0  0  0
 23 56  1  0  0  0  0
 23 57  1  0  0  0  0
 24 29  1  0  0  0  0
 24 25  2  0  0  0  0
 25 26  1  0  0  0  0
 25 58  1  0  0  0  0
 26 27  1  0  0  0  0
 26 28  1  0  0  0  0
 28 33  2  0  0  0  0
 28 29  1  0  0  0  0
 29 30  2  0  0  0  0
 30 31  1  0  0  0  0
 30 59  1  0  0  0  0
 31 32  2  0  0  0  0
 31 60  1  0  0  0  0
 32 33  1  0  0  0  0
 32 61  1  0  0  0  0
 33 62  1  0  0  0  0
 34 35  2  0  0  0  0
 34 36  1  0  0  0  0
M  END
$$$$
CHEMBL347863
 OpenBabel01252620473D

 51 52  0  0  1  0  0  0  0  0999 V2000
    2.0457    1.4781    1.5170 C   0  0  0  0  0  0  0  0  0  0  0  0
    1.5227    0.1152    1.0588 C   0  0  0  0  0  0  0  0  0  0  0  0
    1.8054   -0.9294    2.1404 C   0  0  0  0  0  0  0  0  0  0  0  0
    1.2824   -2.2923    1.6822 C   0  0  2  0  0  0  0  0  0  0  0  0
    1.4495   -3.2945    2.7952 C   0  0  0  0  0  0  0  0  0  0  0  0
    0.5574   -3.4544    3.6106 O   0  0  0  0  0  0  0  0  0  0  0  0
    2.4769   -3.9455    2.8801 O   0  0  0  0  0  1  0  0  0  0  0  0
    2.0401   -2.7370    0.5049 N   0  3  0  0  0  0  0  0  0  0  0  0
    1.4611   -3.9863   -0.0069 C   0  0  1  0  0  0  0  0  0  0  0  0
    1.4276   -4.7258    0.7932 H   0  0  0  0  0  0  0  0  0  0  0  0
    0.0427   -3.7203   -0.5152 C   0  0  0  0  0  0  0  0  0  0  0  0
    2.3104   -4.5075   -1.1374 C   0  0  0  0  0  0  0  0  0  0  0  0
    3.0152   -3.7472   -1.7667 O   0  0  0  0  0  0  0  0  0  0  0  0
    2.2866   -5.8185   -1.4491 N   0  0  0  0  0  0  0  0  0  0  0  0
    3.1207   -6.4801   -2.4559 C   0  0  1  0  0  0  0  0  0  0  0  0
    4.4686   -5.8188   -2.6337 C   0  0  0  0  0  0  0  0  0  0  0  0
    5.3271   -5.9647   -1.3773 C   0  0  0  0  0  0  0  0  0  0  0  0
    5.5164   -7.4582   -1.0909 C   0  0  0  0  0  0  0  0  0  0  0  0
    4.1518   -8.0760   -0.7952 C   0  0  0  0  0  0  0  0  0  0  0  0
    3.2267   -7.9493   -2.0074 C   0  0  1  0  0  0  0  0  0  0  0  0
    1.7766   -8.1936   -1.4881 C   0  0  0  0  0  0  0  0  0  0  0  0
    1.4215   -6.8405   -0.8329 C   0  0  1  0  0  0  0  0  0  0  0  0
    1.6783   -6.9031    0.6508 C   0  0  0  0  0  0  0  0  0  0  0  0
    0.9392   -7.5530    1.3705 O   0  0  0  0  0  0  0  0  0  0  0  0
    2.6250   -6.3038    1.1314 O   0  0  0  0  0  1  0  0  0  0  0  0
    3.1201    1.4156    1.6898 H   0  0  0  0  0  0  0  0  0  0  0  0
    1.8443    2.2223    0.7464 H   0  0  0  0  0  0  0  0  0  0  0  0
    1.5452    1.7673    2.4411 H   0  0  0  0  0  0  0  0  0  0  0  0
    0.4483    0.1777    0.8860 H   0  0  0  0  0  0  0  0  0  0  0  0
    2.0231   -0.1741    0.1347 H   0  0  0  0  0  0  0  0  0  0  0  0
    2.8798   -0.9919    2.3132 H   0  0  0  0  0  0  0  0  0  0  0  0
    1.3049   -0.6402    3.0645 H   0  0  0  0  0  0  0  0  0  0  0  0
    0.2266   -2.2084    1.4244 H   0  0  0  0  0  0  0  0  0  0  0  0
    1.9958   -2.0276   -0.2112 H   0  0  0  0  0  0  0  0  0  0  0  0
   -0.3461   -4.6189   -0.9942 H   0  0  0  0  0  0  0  0  0  0  0  0
   -0.5988   -3.4490    0.3232 H   0  0  0  0  0  0  0  0  0  0  0  0
    0.0625   -2.9036   -1.2368 H   0  0  0  0  0  0  0  0  0  0  0  0
    2.5990   -6.4476   -3.4124 H   0  0  0  0  0  0  0  0  0  0  0  0
    4.9850   -6.2813   -3.4748 H   0  0  0  0  0  0  0  0  0  0  0  0
    4.3216   -4.7596   -2.8448 H   0  0  0  0  0  0  0  0  0  0  0  0
    6.2979   -5.4963   -1.5397 H   0  0  0  0  0  0  0  0  0  0  0  0
    4.8265   -5.4897   -0.5335 H   0  0  0  0  0  0  0  0  0  0  0  0
    5.9571   -7.9445   -1.9611 H   0  0  0  0  0  0  0  0  0  0  0  0
    6.1700   -7.5851   -0.2279 H   0  0  0  0  0  0  0  0  0  0  0  0
    4.2805   -9.1303   -0.5504 H   0  0  0  0  0  0  0  0  0  0  0  0
    3.7020   -7.5630    0.0549 H   0  0  0  0  0  0  0  0  0  0  0  0
    3.5134   -8.6160   -2.8207 H   0  0  0  0  0  0  0  0  0  0  0  0
    1.1021   -8.4157   -2.3150 H   0  0  0  0  0  0  0  0  0  0  0  0
    1.7605   -8.9945   -0.7489 H   0  0  0  0  0  0  0  0  0  0  0  0
    0.3745   -6.6028   -1.0210 H   0  0  0  0  0  0  0  0  0  0  0  0
    3.0026   -2.8938    0.7639 H   0  0  0  0  0  0  0  0  0  0  0  0
  1  2  1  0  0  0  0
  1 26  1  0  0  0  0
  1 27  1  0  0  0  0
  1 28  1  0  0  0  0
  2  3  1  0  0  0  0
  2 29  1  0  0  0  0
  2 30  1  0  0  0  0
  3  4  1  0  0  0  0
  3 31  1  0  0  0  0
  3 32  1  0  0  0  0
  4  5  1  0  0  0  0
  4  8  1  0  0  0  0
  4 33  1  6  0  0  0
  5  6  2  0  0  0  0
  5  7  1  0  0  0  0
  8  9  1  0  0  0  0
  8 34  1  0  0  0  0
  8 51  1  0  0  0  0
  9 10  1  1  0  0  0
  9 11  1  0  0  0  0
  9 12  1  0  0  0  0
 11 35  1  0  0  0  0
 11 36  1  0  0  0  0
 11 37  1  0  0  0  0
 12 13  2  0  0  0  0
 12 14  1  0  0  0  0
 14 22  1  0  0  0  0
 14 15  1  0  0  0  0
 15 20  1  0  0  0  0
 15 16  1  0  0  0  0
 15 38  1  6  0  0  0
 16 17  1  0  0  0  0
 16 39  1  0  0  0  0
 16 40  1  0  0  0  0
 17 18  1  0  0  0  0
 17 41  1  0  0  0  0
 17 42  1  0  0  0  0
 18 19  1  0  0  0  0
 18 43  1  0  0  0  0
 18 44  1  0  0  0  0
 19 20  1  0  0  0  0
 19 45  1  0  0  0  0
 19 46  1  0  0  0  0
 20 21  1  0  0  0  0
 20 47  1  6  0  0  0
 21 22  1  0  0  0  0
 21 48  1  0  0  0  0
 21 49  1  0  0  0  0
 22 23  1  0  0  0  0
 22 50  1  6  0  0  0
 23 24  2  0  0  0  0
 23 25  1  0  0  0  0
M  CHG  1   8   1
M  END
$$$$
CHEMBL36748
 OpenBabel01252620473D

 51 53  0  0  1  0  0  0  0  0999 V2000
    0.8985    1.7993    2.6607 C   0  0  0  0  0  0  0  0  0  0  0  0
    1.2900    1.0572    3.7593 C   0  0  0  0  0  0  0  0  0  0  0  0
    2.3107    0.1326    3.6407 C   0  0  0  0  0  0  0  0  0  0  0  0
    2.9397   -0.0502    2.4234 C   0  0  0  0  0  0  0  0  0  0  0  0
    2.5477    0.6913    1.3246 C   0  0  0  0  0  0  0  0  0  0  0  0
    1.5279    1.6169    1.4435 C   0  0  0  0  0  0  0  0  0  0  0  0
    4.0532   -1.0575    2.2943 C   0  0  0  0  0  0  0  0  0  0  0  0
    3.4685   -2.4172    1.9067 C   0  0  0  0  0  0  0  0  0  0  0  0
    4.5804   -3.4681    1.9028 C   0  0  1  0  0  0  0  0  0  0  0  0
    3.9840   -4.8295    1.6542 C   0  0  0  0  0  0  0  0  0  0  0  0
    3.6864   -5.1671    0.5211 O   0  0  0  0  0  0  0  0  0  0  0  0
    3.7991   -5.5934    2.5863 O   0  0  0  0  0  1  0  0  0  0  0  0
    5.5461   -3.1552    0.8408 N   0  3  0  0  0  0  0  0  0  0  0  0
    6.7899   -3.9010    1.0748 C   0  0  1  0  0  0  0  0  0  0  0  0
    7.0047   -3.9176    2.1433 H   0  0  0  0  0  0  0  0  0  0  0  0
    6.6214   -5.3437    0.5670 C   0  0  0  0  0  0  0  0  0  0  0  0
    6.8078   -5.3059   -1.2474 S   0  0  2  0  0  0  0  0  0  0  0  0
    8.1578   -5.0113   -1.5788 O   0  0  0  0  0  0  0  0  0  0  0  0
    5.9266   -3.8506   -1.7132 C   0  0  0  0  0  0  0  0  0  0  0  0
    4.7089   -3.9438   -2.3542 C   0  0  0  0  0  0  0  0  0  0  0  0
    4.0321   -2.7914   -2.7136 C   0  0  0  0  0  0  0  0  0  0  0  0
    4.5737   -1.5503   -2.4324 C   0  0  0  0  0  0  0  0  0  0  0  0
    5.7937   -1.4537   -1.7904 C   0  0  0  0  0  0  0  0  0  0  0  0
    6.4725   -2.6085   -1.4280 C   0  0  0  0  0  0  0  0  0  0  0  0
    7.7080   -2.5322   -0.7710 N   0  0  0  0  0  0  0  0  0  0  0  0
    7.9172   -3.2246    0.3526 C   0  0  0  0  0  0  0  0  0  0  0  0
    9.0417   -3.3011    0.8005 O   0  0  0  0  0  0  0  0  0  0  0  0
    8.7752   -1.6929   -1.3213 C   0  0  0  0  0  0  0  0  0  0  0  0
    8.6679   -0.3035   -0.7478 C   0  0  0  0  0  0  0  0  0  0  0  0
    7.7820   -0.0388    0.0470 O   0  0  0  0  0  0  0  0  0  0  0  0
    9.4669    0.5560   -1.0785 O   0  0  0  0  0  1  0  0  0  0  0  0
    0.0980    2.5185    2.7523 H   0  0  0  0  0  0  0  0  0  0  0  0
    0.7985    1.2000    4.7103 H   0  0  0  0  0  0  0  0  0  0  0  0
    2.6170   -0.4468    4.4991 H   0  0  0  0  0  0  0  0  0  0  0  0
    3.0394    0.5488    0.3736 H   0  0  0  0  0  0  0  0  0  0  0  0
    1.2219    2.1965    0.5851 H   0  0  0  0  0  0  0  0  0  0  0  0
    4.7521   -0.7298    1.5247 H   0  0  0  0  0  0  0  0  0  0  0  0
    4.5762   -1.1450    3.2466 H   0  0  0  0  0  0  0  0  0  0  0  0
    2.7020   -2.7019    2.6276 H   0  0  0  0  0  0  0  0  0  0  0  0
    3.0262   -2.3524    0.9126 H   0  0  0  0  0  0  0  0  0  0  0  0
    5.0875   -3.4642    2.8676 H   0  0  0  0  0  0  0  0  0  0  0  0
    5.1595   -3.4180   -0.0534 H   0  0  0  0  0  0  0  0  0  0  0  0
    7.3878   -5.9830    1.0053 H   0  0  0  0  0  0  0  0  0  0  0  0
    5.6314   -5.7162    0.8304 H   0  0  0  0  0  0  0  0  0  0  0  0
    4.2851   -4.9124   -2.5746 H   0  0  0  0  0  0  0  0  0  0  0  0
    3.0783   -2.8615   -3.2153 H   0  0  0  0  0  0  0  0  0  0  0  0
    4.0419   -0.6540   -2.7156 H   0  0  0  0  0  0  0  0  0  0  0  0
    6.2166   -0.4843   -1.5719 H   0  0  0  0  0  0  0  0  0  0  0  0
    9.7438   -2.1197   -1.0609 H   0  0  0  0  0  0  0  0  0  0  0  0
    8.6783   -1.6467   -2.4060 H   0  0  0  0  0  0  0  0  0  0  0  0
    5.7416   -2.1654    0.8450 H   0  0  0  0  0  0  0  0  0  0  0  0
  1  6  2  0  0  0  0
  1  2  1  0  0  0  0
  1 32  1  0  0  0  0
  2  3  2  0  0  0  0
  2 33  1  0  0  0  0
  3  4  1  0  0  0  0
  3 34  1  0  0  0  0
  4  5  2  0  0  0  0
  4  7  1  0  0  0  0
  5  6  1  0  0  0  0
  5 35  1  0  0  0  0
  6 36  1  0  0  0  0
  7  8  1  0  0  0  0
  7 37  1  0  0  0  0
  7 38  1  0  0  0  0
  8  9  1  0  0  0  0
  8 39  1  0  0  0  0
  8 40  1  0  0  0  0
  9 10  1  0  0  0  0
  9 13  1  0  0  0  0
  9 41  1  1  0  0  0
 10 11  2  0  0  0  0
 10 12  1  0  0  0  0
 13 14  1  0  0  0  0
 13 42  1  0  0  0  0
 13 51  1  0  0  0  0
 14 15  1  1  0  0  0
 14 26  1  0  0  0  0
 14 16  1  0  0  0  0
 16 17  1  0  0  0  0
 16 43  1  0  0  0  0
 16 44  1  0  0  0  0
 17 18  2  1  0  0  0
 17 19  1  0  0  0  0
 19 24  2  0  0  0  0
 19 20  1  0  0  0  0
 20 21  2  0  0  0  0
 20 45  1  0  0  0  0
 21 22  1  0  0  0  0
 21 46  1  0  0  0  0
 22 23  2  0  0  0  0
 22 47  1  0  0  0  0
 23 24  1  0  0  0  0
 23 48  1  0  0  0  0
 24 25  1  0  0  0  0
 25 26  1  0  0  0  0
 25 28  1  0  0  0  0
 26 27  2  0  0  0  0
 28 29  1  0  0  0  0
 28 49  1  0  0  0  0
 28 50  1  0  0  0  0
 29 30  2  0  0  0  0
 29 31  1  0  0  0  0
M  CHG  1  13   1
M  END
$$$$
CHEMBL26053
 OpenBabel01252620473D

 46 47  0  0  1  0  0  0  0  0999 V2000
   -0.0187    1.5258    0.0104 C   0  0  0  0  0  0  0  0  0  0  0  0
    0.0021   -0.0041    0.0020 C   0  0  2  0  0  0  0  0  0  0  0  0
    0.7074   -0.4901   -1.2379 C   0  0  0  0  0  0  0  0  0  0  0  0
    0.0664   -0.7818   -2.2252 O   0  0  0  0  0  0  0  0  0  0  0  0
    2.0506   -0.6005   -1.2495 N   0  0  0  0  0  0  0  0  0  0  0  0
    2.9482   -0.2876   -0.1227 C   0  0  0  0  0  0  0  0  0  0  0  0
    4.2228   -1.1278   -0.3858 C   0  0  0  0  0  0  0  0  0  0  0  0
    4.3373   -1.0445   -1.9309 C   0  0  0  0  0  0  0  0  0  0  0  0
    2.8629   -1.0591   -2.3859 C   0  0  2  0  0  0  0  0  0  0  0  0
    2.6810   -0.1262   -3.5554 C   0  0  0  0  0  0  0  0  0  0  0  0
    2.4348    1.0522   -3.3627 O   0  0  0  0  0  0  0  0  0  0  0  0
    2.7800   -0.5499   -4.6944 O   0  0  0  0  0  1  0  0  0  0  0  0
   -1.6997   -0.6320    0.0149 S   0  0  0  0  0  0  0  0  0  0  0  0
   -2.3537   -0.0946    1.6193 C   0  0  1  0  0  0  0  0  0  0  0  0
   -3.8377   -0.4550    1.7118 C   0  0  0  0  0  0  0  0  0  0  0  0
   -4.6222    0.3418    0.6676 C   0  0  0  0  0  0  0  0  0  0  0  0
   -6.0839   -0.0132    0.7587 C   0  0  0  0  0  0  0  0  0  0  0  0
   -6.5890   -1.0597    0.0099 C   0  0  0  0  0  0  0  0  0  0  0  0
   -7.9298   -1.3854    0.0935 C   0  0  0  0  0  0  0  0  0  0  0  0
   -8.7655   -0.6649    0.9262 C   0  0  0  0  0  0  0  0  0  0  0  0
   -8.2602    0.3809    1.6757 C   0  0  0  0  0  0  0  0  0  0  0  0
   -6.9185    0.7039    1.5954 C   0  0  0  0  0  0  0  0  0  0  0  0
   -1.5990   -0.7850    2.7261 C   0  0  0  0  0  0  0  0  0  0  0  0
   -0.8404   -0.1476    3.4365 O   0  0  0  0  0  0  0  0  0  0  0  0
   -1.7472   -1.9810    2.9111 O   0  0  0  0  0  1  0  0  0  0  0  0
    1.0039    1.9031    0.0027 H   0  0  0  0  0  0  0  0  0  0  0  0
   -0.5459    1.8868   -0.8726 H   0  0  0  0  0  0  0  0  0  0  0  0
   -0.5289    1.8773    0.9072 H   0  0  0  0  0  0  0  0  0  0  0  0
    0.5293   -0.3651    0.8851 H   0  0  0  0  0  0  0  0  0  0  0  0
    3.1897    0.7753   -0.1139 H   0  0  0  0  0  0  0  0  0  0  0  0
    2.4887   -0.5809    0.8212 H   0  0  0  0  0  0  0  0  0  0  0  0
    5.0923   -0.6797    0.0951 H   0  0  0  0  0  0  0  0  0  0  0  0
    4.0855   -2.1586   -0.0592 H   0  0  0  0  0  0  0  0  0  0  0  0
    4.8285   -0.1191   -2.2319 H   0  0  0  0  0  0  0  0  0  0  0  0
    4.8689   -1.9105   -2.3254 H   0  0  0  0  0  0  0  0  0  0  0  0
    2.5697   -2.0706   -2.6669 H   0  0  0  0  0  0  0  0  0  0  0  0
   -2.2351    0.9846    1.7170 H   0  0  0  0  0  0  0  0  0  0  0  0
   -3.9648   -1.5215    1.5259 H   0  0  0  0  0  0  0  0  0  0  0  0
   -4.2090   -0.2131    2.7077 H   0  0  0  0  0  0  0  0  0  0  0  0
   -4.4950    1.4083    0.8536 H   0  0  0  0  0  0  0  0  0  0  0  0
   -4.2509    0.0999   -0.3283 H   0  0  0  0  0  0  0  0  0  0  0  0
   -5.9361   -1.6226   -0.6407 H   0  0  0  0  0  0  0  0  0  0  0  0
   -8.3245   -2.2025   -0.4921 H   0  0  0  0  0  0  0  0  0  0  0  0
   -9.8132   -0.9190    0.9910 H   0  0  0  0  0  0  0  0  0  0  0  0
   -8.9132    0.9440    2.3261 H   0  0  0  0  0  0  0  0  0  0  0  0
   -6.5230    1.5186    2.1838 H   0  0  0  0  0  0  0  0  0  0  0  0
  1  2  1  0  0  0  0
  1 26  1  0  0  0  0
  1 27  1  0  0  0  0
  1 28  1  0  0  0  0
  2  3  1  0  0  0  0
  2 13  1  0  0  0  0
  2 29  1  1  0  0  0
  3  4  2  0  0  0  0
  3  5  1  0  0  0  0
  5  9  1  0  0  0  0
  5  6  1  0  0  0  0
  6  7  1  0  0  0  0
  6 30  1  0  0  0  0
  6 31  1  0  0  0  0
  7  8  1  0  0  0  0
  7 32  1  0  0  0  0
  7 33  1  0  0  0  0
  8  9  1  0  0  0  0
  8 34  1  0  0  0  0
  8 35  1  0  0  0  0
  9 10  1  0  0  0  0
  9 36  1  6  0  0  0
 10 11  2  0  0  0  0
 10 12  1  0  0  0  0
 13 14  1  0  0  0  0
 14 15  1  0  0  0  0
 14 23  1  0  0  0  0
 14 37  1  1  0  0  0
 15 16  1  0  0  0  0
 15 38  1  0  0  0  0
 15 39  1  0  0  0  0
 16 17  1  0  0  0  0
 16 40  1  0  0  0  0
 16 41  1  0  0  0  0
 17 22  2  0  0  0  0
 17 18  1  0  0  0  0
 18 19  2  0  0  0  0
 18 42  1  0  0  0  0
 19 20  1  0  0  0  0
 19 43  1  0  0  0  0
 20 21  2  0  0  0  0
 20 44  1  0  0  0  0
 21 22  1  0  0  0  0
 21 45  1  0  0  0  0
 22 46  1  0  0  0  0
 23 24  2  0  0  0  0
 23 25  1  0  0  0  0
M  END
$$$$
CHEMBL347863
 OpenBabel01252620473D

 51 52  0  0  1  0  0  0  0  0999 V2000
   -0.3655   -0.7231   -2.3664 C   0  0  0  0  0  0  0  0  0  0  0  0
   -0.1143   -1.8886   -1.4075 C   0  0  0  0  0  0  0  0  0  0  0  0
    0.2178   -1.3428   -0.0173 C   0  0  0  0  0  0  0  0  0  0  0  0
    0.4690   -2.5083    0.9416 C   0  0  1  0  0  0  0  0  0  0  0  0
    0.9155   -1.9724    2.2775 C   0  0  0  0  0  0  0  0  0  0  0  0
    0.0910   -1.7192    3.1392 O   0  0  0  0  0  0  0  0  0  0  0  0
    2.1012   -1.7922    2.4965 O   0  0  0  0  0  1  0  0  0  0  0  0
   -0.7706   -3.2779    1.1122 N   0  3  0  0  0  0  0  0  0  0  0  0
   -0.4638   -4.5652    1.7499 C   0  0  1  0  0  0  0  0  0  0  0  0
    0.3304   -5.0652    1.1955 H   0  0  0  0  0  0  0  0  0  0  0  0
   -0.0071   -4.3249    3.1902 C   0  0  0  0  0  0  0  0  0  0  0  0
   -1.6971   -5.4313    1.7518 C   0  0  0  0  0  0  0  0  0  0  0  0
   -2.7959   -4.9221    1.6866 O   0  0  0  0  0  0  0  0  0  0  0  0
   -1.5790   -6.7719    1.8261 N   0  0  0  0  0  0  0  0  0  0  0  0
   -2.6603   -7.7400    1.7415 C   0  0  2  0  0  0  0  0  0  0  0  0
   -4.0248   -7.3184    2.2448 C   0  0  0  0  0  0  0  0  0  0  0  0
   -4.9847   -8.4964    2.0091 C   0  0  0  0  0  0  0  0  0  0  0  0
   -4.4912   -9.7631    2.7017 C   0  0  0  0  0  0  0  0  0  0  0  0
   -3.0563  -10.1145    2.2773 C   0  0  0  0  0  0  0  0  0  0  0  0
   -2.1787   -8.9237    2.6240 C   0  0  1  0  0  0  0  0  0  0  0  0
   -0.7171   -9.0308    2.1620 C   0  0  0  0  0  0  0  0  0  0  0  0
   -0.3217   -7.5364    2.0029 C   0  0  1  0  0  0  0  0  0  0  0  0
    0.5602   -7.3612    0.7935 C   0  0  0  0  0  0  0  0  0  0  0  0
    1.7127   -7.7583    0.8168 O   0  0  0  0  0  0  0  0  0  0  0  0
    0.1212   -6.8223   -0.2082 O   0  0  0  0  0  1  0  0  0  0  0  0
    0.5277   -0.1011   -2.4241 H   0  0  0  0  0  0  0  0  0  0  0  0
   -0.6022   -1.1119   -3.3568 H   0  0  0  0  0  0  0  0  0  0  0  0
   -1.2011   -0.1259   -2.0013 H   0  0  0  0  0  0  0  0  0  0  0  0
   -1.0076   -2.5106   -1.3498 H   0  0  0  0  0  0  0  0  0  0  0  0
    0.7213   -2.4858   -1.7725 H   0  0  0  0  0  0  0  0  0  0  0  0
    1.1111   -0.7208   -0.0750 H   0  0  0  0  0  0  0  0  0  0  0  0
   -0.6178   -0.7456    0.3478 H   0  0  0  0  0  0  0  0  0  0  0  0
    1.2448   -3.1551    0.5319 H   0  0  0  0  0  0  0  0  0  0  0  0
   -1.4114   -2.7588    1.6935 H   0  0  0  0  0  0  0  0  0  0  0  0
   -0.7161   -3.6656    3.6910 H   0  0  0  0  0  0  0  0  0  0  0  0
    0.0407   -5.2764    3.7198 H   0  0  0  0  0  0  0  0  0  0  0  0
    0.9794   -3.8614    3.1860 H   0  0  0  0  0  0  0  0  0  0  0  0
   -2.7577   -8.0798    0.7104 H   0  0  0  0  0  0  0  0  0  0  0  0
   -3.9728   -7.0898    3.3093 H   0  0  0  0  0  0  0  0  0  0  0  0
   -4.3692   -6.4435    1.6933 H   0  0  0  0  0  0  0  0  0  0  0  0
   -5.9693   -8.2375    2.3986 H   0  0  0  0  0  0  0  0  0  0  0  0
   -5.0639   -8.6832    0.9382 H   0  0  0  0  0  0  0  0  0  0  0  0
   -4.5166   -9.6120    3.7809 H   0  0  0  0  0  0  0  0  0  0  0  0
   -5.1518  -10.5908    2.4434 H   0  0  0  0  0  0  0  0  0  0  0  0
   -2.7150  -10.9969    2.8186 H   0  0  0  0  0  0  0  0  0  0  0  0
   -3.0220  -10.3004    1.2038 H   0  0  0  0  0  0  0  0  0  0  0  0
   -2.2495   -8.6813    3.6844 H   0  0  0  0  0  0  0  0  0  0  0  0
   -0.1039   -9.5208    2.9182 H   0  0  0  0  0  0  0  0  0  0  0  0
   -0.6470   -9.5521    1.2073 H   0  0  0  0  0  0  0  0  0  0  0  0
    0.1983   -7.1944    2.8978 H   0  0  0  0  0  0  0  0  0  0  0  0
   -1.1918   -3.4414    0.2100 H   0  0  0  0  0  0  0  0  0  0  0  0
  1  2  1  0  0  0  0
  1 26  1  0  0  0  0
  1 27  1  0  0  0  0
  1 28  1  0  0  0  0
  2  3  1  0  0  0  0
  2 29  1  0  0  0  0
  2 30  1  0  0  0  0
  3  4  1  0  0  0  0
  3 31  1  0  0  0  0
  3 32  1  0  0  0  0
  4  5  1  0  0  0  0
  4  8  1  0  0  0  0
  4 33  1  6  0  0  0
  5  6  2  0  0  0  0
  5  7  1  0  0  0  0
  8  9  1  0  0  0  0
  8 34  1  0  0  0  0
  8 51  1  0  0  0  0
  9 10  1  6  0  0  0
  9 11  1  0  0  0  0
  9 12  1  0  0  0  0
 11 35  1  0  0  0  0
 11 36  1  0  0  0  0
 11 37  1  0  0  0  0
 12 13  2  0  0  0  0
 12 14  1  0  0  0  0
 14 22  1  0  0  0  0
 14 15  1  0  0  0  0
 15 20  1  0  0  0  0
 15 16  1  0  0  0  0
 15 38  1  6  0  0  0
 16 17  1  0  0  0  0
 16 39  1  0  0  0  0
 16 40  1  0  0  0  0
 17 18  1  0  0  0  0
 17 41  1  0  0  0  0
 17 42  1  0  0  0  0
 18 19  1  0  0  0  0
 18 43  1  0  0  0  0
 18 44  1  0  0  0  0
 19 20  1  0  0  0  0
 19 45  1  0  0  0  0
 19 46  1  0  0  0  0
 20 21  1  0  0  0  0
 20 47  1  1  0  0  0
 21 22  1  0  0  0  0
 21 48  1  0  0  0  0
 21 49  1  0  0  0  0
 22 23  1  0  0  0  0
 22 50  1  1  0  0  0
 23 24  2  0  0  0  0
 23 25  1  0  0  0  0
M  CHG  1   8   1
M  END
$$$$
CHEMBL37596
 OpenBabel01252620473D

 58 61  0  0  1  0  0  0  0  0999 V2000
    0.0923    1.5578    0.1094 C   0  0  0  0  0  0  0  0  0  0  0  0
    0.0421    0.1774    0.0555 C   0  0  0  0  0  0  0  0  0  0  0  0
    1.2132   -0.5555    0.0077 C   0  0  0  0  0  0  0  0  0  0  0  0
    2.4345    0.0919    0.0135 C   0  0  0  0  0  0  0  0  0  0  0  0
    2.4847    1.4724    0.0665 C   0  0  0  0  0  0  0  0  0  0  0  0
    1.3137    2.2052    0.1157 C   0  0  0  0  0  0  0  0  0  0  0  0
    3.7112   -0.7071   -0.0376 C   0  0  0  0  0  0  0  0  0  0  0  0
    3.8699   -1.4828    1.2447 C   0  0  0  0  0  0  0  0  0  0  0  0
    3.0119   -2.5282    1.5308 C   0  0  0  0  0  0  0  0  0  0  0  0
    3.1575   -3.2398    2.7070 C   0  0  0  0  0  0  0  0  0  0  0  0
    4.1614   -2.9062    3.5968 C   0  0  0  0  0  0  0  0  0  0  0  0
    5.0200   -1.8613    3.3103 C   0  0  0  0  0  0  0  0  0  0  0  0
    4.8770   -1.1526    2.1321 C   0  0  0  0  0  0  0  0  0  0  0  0
    3.6578   -1.6788   -1.2182 C   0  0  1  0  0  0  0  0  0  0  0  0
    3.4966   -0.8913   -2.5200 C   0  0  0  0  0  0  0  0  0  0  0  0
    3.2851   -2.0459   -3.9030 S   0  0  0  0  0  0  0  0  0  0  0  0
    4.9345   -2.4779   -1.2692 C   0  0  0  0  0  0  0  0  0  0  0  0
    5.8017   -2.2888   -0.4427 O   0  0  0  0  0  0  0  0  0  0  0  0
    5.1126   -3.4026   -2.2334 N   0  0  0  0  0  0  0  0  0  0  0  0
    6.3537   -4.1794   -2.2830 C   0  0  2  0  0  0  0  0  0  0  0  0
    6.5964   -4.6620   -3.7145 C   0  0  0  0  0  0  0  0  0  0  0  0
    6.8332   -3.4744   -4.6116 C   0  0  0  0  0  0  0  0  0  0  0  0
    5.9135   -2.8393   -5.3550 C   0  0  0  0  0  0  0  0  0  0  0  0
    6.4974   -1.8079   -6.0388 N   0  0  0  0  0  0  0  0  0  0  0  0
    6.0336   -1.2054   -6.6411 H   0  0  0  0  0  0  0  0  0  0  0  0
    7.8414   -1.7527   -5.7446 C   0  0  0  0  0  0  0  0  0  0  0  0
    8.1095   -2.7902   -4.8328 C   0  0  0  0  0  0  0  0  0  0  0  0
    9.4058   -2.9743   -4.3486 C   0  0  0  0  0  0  0  0  0  0  0  0
   10.4084   -2.1421   -4.7607 C   0  0  0  0  0  0  0  0  0  0  0  0
   10.1483   -1.1147   -5.6567 C   0  0  0  0  0  0  0  0  0  0  0  0
    8.8780   -0.9209   -6.1544 C   0  0  0  0  0  0  0  0  0  0  0  0
    6.2390   -5.3688   -1.3647 C   0  0  0  0  0  0  0  0  0  0  0  0
    5.1504   -5.8784   -1.1603 O   0  0  0  0  0  0  0  0  0  0  0  0
    7.2348   -5.8213   -0.8261 O   0  0  0  0  0  1  0  0  0  0  0  0
   -0.8227    2.1306    0.1422 H   0  0  0  0  0  0  0  0  0  0  0  0
   -0.9121   -0.3285    0.0510 H   0  0  0  0  0  0  0  0  0  0  0  0
    1.1739   -1.6340   -0.0337 H   0  0  0  0  0  0  0  0  0  0  0  0
    3.4389    1.9782    0.0717 H   0  0  0  0  0  0  0  0  0  0  0  0
    1.3529    3.2837    0.1575 H   0  0  0  0  0  0  0  0  0  0  0  0
    4.5578   -0.0318   -0.1608 H   0  0  0  0  0  0  0  0  0  0  0  0
    2.2276   -2.7889    0.8356 H   0  0  0  0  0  0  0  0  0  0  0  0
    2.4868   -4.0561    2.9308 H   0  0  0  0  0  0  0  0  0  0  0  0
    4.2747   -3.4616    4.5161 H   0  0  0  0  0  0  0  0  0  0  0  0
    5.8040   -1.6005    4.0057 H   0  0  0  0  0  0  0  0  0  0  0  0
    5.5501   -0.3386    1.9065 H   0  0  0  0  0  0  0  0  0  0  0  0
    2.8112   -2.3542   -1.0949 H   0  0  0  0  0  0  0  0  0  0  0  0
    2.6211   -0.2460   -2.4483 H   0  0  0  0  0  0  0  0  0  0  0  0
    4.3845   -0.2817   -2.6882 H   0  0  0  0  0  0  0  0  0  0  0  0
    3.1552   -1.2469   -4.9770 H   0  0  0  0  0  0  0  0  0  0  0  0
    4.4190   -3.5539   -2.8944 H   0  0  0  0  0  0  0  0  0  0  0  0
    7.1871   -3.5534   -1.9644 H   0  0  0  0  0  0  0  0  0  0  0  0
    7.4705   -5.3129   -3.7352 H   0  0  0  0  0  0  0  0  0  0  0  0
    5.7241   -5.2137   -4.0648 H   0  0  0  0  0  0  0  0  0  0  0  0
    4.8676   -3.1035   -5.4061 H   0  0  0  0  0  0  0  0  0  0  0  0
    9.6154   -3.7712   -3.6505 H   0  0  0  0  0  0  0  0  0  0  0  0
   11.4111   -2.2849   -4.3857 H   0  0  0  0  0  0  0  0  0  0  0  0
   10.9510   -0.4648   -5.9725 H   0  0  0  0  0  0  0  0  0  0  0  0
    8.6855   -0.1178   -6.8504 H   0  0  0  0  0  0  0  0  0  0  0  0
  1  6  2  0  0  0  0
  1  2  1  0  0  0  0
  1 35  1  0  0  0  0
  2  3  2  0  0  0  0
  2 36  1  0  0  0  0
  3  4  1  0  0  0  0
  3 37  1  0  0  0  0
  4  5  2  0  0  0  0
  4  7  1  0  0  0  0
  5  6  1  0  0  0  0
  5 38  1  0  0  0  0
  6 39  1  0  0  0  0
  7  8  1  0  0  0  0
  7 14  1  0  0  0  0
  7 40  1  0  0  0  0
  8 13  2  0  0  0  0
  8  9  1  0  0  0  0
  9 10  2  0  0  0  0
  9 41  1  0  0  0  0
 10 11  1  0  0  0  0
 10 42  1  0  0  0  0
 11 12  2  0  0  0  0
 11 43  1  0  0  0  0
 12 13  1  0  0  0  0
 12 44  1  0  0  0  0
 13 45  1  0  0  0  0
 14 15  1  0  0  0  0
 14 17  1  0  0  0  0
 14 46  1  1  0  0  0
 15 16  1  0  0  0  0
 15 47  1  0  0  0  0
 15 48  1  0  0  0  0
 16 49  1  0  0  0  0
 17 18  2  0  0  0  0
 17 19  1  0  0  0  0
 19 20  1  0  0  0  0
 19 50  1  0  0  0  0
 20 21  1  0  0  0  0
 20 32  1  0  0  0  0
 20 51  1  1  0  0  0
 21 22  1  0  0  0  0
 21 52  1  0  0  0  0
 21 53  1  0  0  0  0
 22 27  1  0  0  0  0
 22 23  2  0  0  0  0
 23 24  1  0  0  0  0
 23 54  1  0  0  0  0
 24 25  1  0  0  0  0
 24 26  1  0  0  0  0
 26 31  2  0  0  0  0
 26 27  1  0  0  0  0
 27 28  2  0  0  0  0
 28 29  1  0  0  0  0
 28 55  1  0  0  0  0
 29 30  2  0  0  0  0
 29 56  1  0  0  0  0
 30 31  1  0  0  0  0
 30 57  1  0  0  0  0
 31 58  1  0  0  0  0
 32 33  2  0  0  0  0
 32 34  1  0  0  0  0
M  END
$$$$
CHEMBL282664
 OpenBabel01252620473D

 64 66  0  0  1  0  0  0  0  0999 V2000
   -0.0167    1.3781    0.0096 C   0  0  0  0  0  0  0  0  0  0  0  0
    1.1709    2.0855    0.0021 C   0  0  0  0  0  0  0  0  0  0  0  0
    2.3773    1.4107   -0.0130 C   0  0  0  0  0  0  0  0  0  0  0  0
    2.3960    0.0285   -0.0201 C   0  0  0  0  0  0  0  0  0  0  0  0
    1.2084   -0.6789   -0.0117 C   0  0  0  0  0  0  0  0  0  0  0  0
    0.0021   -0.0041    0.0020 C   0  0  0  0  0  0  0  0  0  0  0  0
    3.7112   -0.7071   -0.0376 C   0  0  0  0  0  0  0  0  0  0  0  0
    4.1714   -0.9633    1.3989 C   0  0  1  0  0  0  0  0  0  0  0  0
    3.3868   -1.4885    1.9436 H   0  0  0  0  0  0  0  0  0  0  0  0
    5.4216   -1.8045    1.3834 C   0  0  0  0  0  0  0  0  0  0  0  0
    6.4455   -1.3782    1.8741 O   0  0  0  0  0  0  0  0  0  0  0  0
    5.4019   -3.0307    0.8243 N   0  0  0  0  0  0  0  0  0  0  0  0
    6.6173   -3.8485    0.8092 C   0  0  1  0  0  0  0  0  0  0  0  0
    7.1849   -3.6726    1.7230 H   0  0  0  0  0  0  0  0  0  0  0  0
    6.2357   -5.3276    0.7225 C   0  0  0  0  0  0  0  0  0  0  0  0
    5.5938   -5.5814   -0.5287 O   0  0  0  0  0  0  0  0  0  0  0  0
    5.1947   -6.9412   -0.7120 C   0  0  0  0  0  0  0  0  0  0  0  0
    4.5324   -7.0935   -2.0570 C   0  0  0  0  0  0  0  0  0  0  0  0
    3.1674   -6.9128   -2.1798 C   0  0  0  0  0  0  0  0  0  0  0  0
    2.5599   -7.0524   -3.4136 C   0  0  0  0  0  0  0  0  0  0  0  0
    3.3175   -7.3723   -4.5248 C   0  0  0  0  0  0  0  0  0  0  0  0
    4.6826   -7.5521   -4.4022 C   0  0  0  0  0  0  0  0  0  0  0  0
    5.2907   -7.4082   -3.1692 C   0  0  0  0  0  0  0  0  0  0  0  0
    7.4587   -3.4760   -0.3843 C   0  0  0  0  0  0  0  0  0  0  0  0
    7.0783   -2.6078   -1.1512 O   0  0  0  0  0  0  0  0  0  0  0  0
    8.5197   -4.0427   -0.5829 O   0  0  0  0  0  1  0  0  0  0  0  0
    4.4511    0.3151    2.0574 N   0  0  0  0  0  0  0  0  0  0  0  0
    3.4510    1.0070    2.6383 C   0  0  0  0  0  0  0  0  0  0  0  0
    2.3193    0.5713    2.6159 O   0  0  0  0  0  0  0  0  0  0  0  0
    3.7387    2.3221    3.3156 C   0  0  2  0  0  0  0  0  0  0  0  0
    4.7818    2.3478    3.6310 H   0  0  0  0  0  0  0  0  0  0  0  0
    2.8322    2.4750    4.5386 C   0  0  0  0  0  0  0  0  0  0  0  0
    3.2035    3.7302    5.2854 C   0  0  0  0  0  0  0  0  0  0  0  0
    4.1604    3.6842    6.2819 C   0  0  0  0  0  0  0  0  0  0  0  0
    4.5009    4.8356    6.9669 C   0  0  0  0  0  0  0  0  0  0  0  0
    3.8849    6.0331    6.6550 C   0  0  0  0  0  0  0  0  0  0  0  0
    2.9286    6.0794    5.6578 C   0  0  0  0  0  0  0  0  0  0  0  0
    2.5912    4.9288    4.9699 C   0  0  0  0  0  0  0  0  0  0  0  0
    3.4240    3.6811    2.1561 S   0  0  0  0  0  1  0  0  0  0  0  0
   -0.9591    1.9053    0.0259 H   0  0  0  0  0  0  0  0  0  0  0  0
    1.1563    3.1654    0.0076 H   0  0  0  0  0  0  0  0  0  0  0  0
    3.3051    1.9634   -0.0196 H   0  0  0  0  0  0  0  0  0  0  0  0
    1.2231   -1.7588   -0.0176 H   0  0  0  0  0  0  0  0  0  0  0  0
   -0.9258   -0.5567    0.0082 H   0  0  0  0  0  0  0  0  0  0  0  0
    3.5884   -1.6586   -0.5549 H   0  0  0  0  0  0  0  0  0  0  0  0
    4.4573   -0.1052   -0.5563 H   0  0  0  0  0  0  0  0  0  0  0  0
    4.5830   -3.3717    0.4319 H   0  0  0  0  0  0  0  0  0  0  0  0
    7.1342   -5.9398    0.8007 H   0  0  0  0  0  0  0  0  0  0  0  0
    5.5551   -5.5756    1.5370 H   0  0  0  0  0  0  0  0  0  0  0  0
    6.0716   -7.5869   -0.6635 H   0  0  0  0  0  0  0  0  0  0  0  0
    4.4925   -7.2227    0.0727 H   0  0  0  0  0  0  0  0  0  0  0  0
    2.5756   -6.6628   -1.3116 H   0  0  0  0  0  0  0  0  0  0  0  0
    1.4934   -6.9119   -3.5093 H   0  0  0  0  0  0  0  0  0  0  0  0
    2.8427   -7.4821   -5.4886 H   0  0  0  0  0  0  0  0  0  0  0  0
    5.2744   -7.8024   -5.2703 H   0  0  0  0  0  0  0  0  0  0  0  0
    6.3578   -7.5450   -3.0741 H   0  0  0  0  0  0  0  0  0  0  0  0
    5.3562    0.6636    2.0753 H   0  0  0  0  0  0  0  0  0  0  0  0
    1.7932    2.5385    4.2151 H   0  0  0  0  0  0  0  0  0  0  0  0
    2.9568    1.6125    5.1933 H   0  0  0  0  0  0  0  0  0  0  0  0
    4.6416    2.7486    6.5256 H   0  0  0  0  0  0  0  0  0  0  0  0
    5.2480    4.7995    7.7459 H   0  0  0  0  0  0  0  0  0  0  0  0
    4.1505    6.9326    7.1906 H   0  0  0  0  0  0  0  0  0  0  0  0
    2.4471    7.0149    5.4143 H   0  0  0  0  0  0  0  0  0  0  0  0
    1.8468    4.9656    4.1883 H   0  0  0  0  0  0  0  0  0  0  0  0
  1  6  2  0  0  0  0
  1  2  1  0  0  0  0
  1 40  1  0  0  0  0
  2  3  2  0  0  0  0
  2 41  1  0  0  0  0
  3  4  1  0  0  0  0
  3 42  1  0  0  0  0
  4  5  2  0  0  0  0
  4  7  1  0  0  0  0
  5  6  1  0  0  0  0
  5 43  1  0  0  0  0
  6 44  1  0  0  0  0
  7  8  1  0  0  0  0
  7 45  1  0  0  0  0
  7 46  1  0  0  0  0
  8  9  1  1  0  0  0
  8 10  1  0  0  0  0
  8 27  1  0  0  0  0
 10 11  2  0  0  0  0
 10 12  1  0  0  0  0
 12 13  1  0  0  0  0
 12 47  1  0  0  0  0
 13 14  1  1  0  0  0
 13 15  1  0  0  0  0
 13 24  1  0  0  0  0
 15 16  1  0  0  0  0
 15 48  1  0  0  0  0
 15 49  1  0  0  0  0
 16 17  1  0  0  0  0
 17 18  1  0  0  0  0
 17 50  1  0  0  0  0
 17 51  1  0  0  0  0
 18 23  2  0  0  0  0
 18 19  1  0  0  0  0
 19 20  2  0  0  0  0
 19 52  1  0  0  0  0
 20 21  1  0  0  0  0
 20 53  1  0  0  0  0
 21 22  2  0  0  0  0
 21 54  1  0  0  0  0
 22 23  1  0  0  0  0
 22 55  1  0  0  0  0
 23 56  1  0  0  0  0
 24 25  2  0  0  0  0
 24 26  1  0  0  0  0
 27 28  1  0  0  0  0
 27 57  1  0  0  0  0
 28 29  2  0  0  0  0
 28 30  1  0  0  0  0
 30 31  1  1  0  0  0
 30 32  1  0  0  0  0
 30 39  1  0  0  0  0
 32 33  1  0  0  0  0
 32 58  1  0  0  0  0
 32 59  1  0  0  0  0
 33 38  2  0  0  0  0
 33 34  1  0  0  0  0
 34 35  2  0  0  0  0
 34 60  1  0  0  0  0
 35 36  1  0  0  0  0
 35 61  1  0  0  0  0
 36 37  2  0  0  0  0
 36 62  1  0  0  0  0
 37 38  1  0  0  0  0
 37 63  1  0  0  0  0
 38 64  1  0  0  0  0
M  END
$$$$
CHEMBL19951
 OpenBabel01252620473D

 54 56  0  0  1  0  0  0  0  0999 V2000
    0.0176    1.3281   -0.7589 C   0  0  0  0  0  0  0  0  0  0  0  0
    0.0006   -0.0005   -0.0004 C   0  0  1  0  0  0  0  0  0  0  0  0
    0.4284    0.1421    0.9919 H   0  0  0  0  0  0  0  0  0  0  0  0
   -1.4199   -0.4864    0.1300 C   0  0  0  0  0  0  0  0  0  0  0  0
   -1.8785   -1.2480   -0.6950 O   0  0  0  0  0  0  0  0  0  0  0  0
   -2.1808   -0.0746    1.1634 N   0  0  0  0  0  0  0  0  0  0  0  0
   -3.5239   -0.5307    1.4826 C   0  0  2  0  0  0  0  0  0  0  0  0
   -4.4116   -0.9655    0.3355 C   0  0  0  0  0  0  0  0  0  0  0  0
   -5.7465   -1.4319    0.9400 C   0  0  0  0  0  0  0  0  0  0  0  0
   -6.3948   -0.3302    1.7730 C   0  0  0  0  0  0  0  0  0  0  0  0
   -5.4392    0.1921    2.8576 C   0  0  0  0  0  0  0  0  0  0  0  0
   -4.1921    0.7000    2.1540 C   0  0  1  0  0  0  0  0  0  0  0  0
   -3.0553    1.1543    3.0827 C   0  0  0  0  0  0  0  0  0  0  0  0
   -1.8031    0.9236    2.1918 C   0  0  1  0  0  0  0  0  0  0  0  0
   -0.6652    0.3954    3.0267 C   0  0  0  0  0  0  0  0  0  0  0  0
   -0.0874    1.1333    3.8065 O   0  0  0  0  0  0  0  0  0  0  0  0
   -0.3223   -0.7700    2.9224 O   0  0  0  0  0  1  0  0  0  0  0  0
    0.7904   -0.9921   -0.7347 N   0  0  0  0  0  0  0  0  0  0  0  0
    2.1249   -1.0561   -0.5574 C   0  0  0  0  0  0  0  0  0  0  0  0
    2.6720   -0.2928    0.2101 O   0  0  0  0  0  0  0  0  0  0  0  0
    2.9374   -2.0762   -1.3127 C   0  0  2  0  0  0  0  0  0  0  0  0
    2.3017   -2.9194   -1.5826 H   0  0  0  0  0  0  0  0  0  0  0  0
    4.0877   -2.5663   -0.4311 C   0  0  0  0  0  0  0  0  0  0  0  0
    4.8262   -3.6734   -1.1383 C   0  0  0  0  0  0  0  0  0  0  0  0
    4.4329   -4.9872   -0.9651 C   0  0  0  0  0  0  0  0  0  0  0  0
    5.1103   -6.0027   -1.6138 C   0  0  0  0  0  0  0  0  0  0  0  0
    6.1806   -5.7043   -2.4360 C   0  0  0  0  0  0  0  0  0  0  0  0
    6.5734   -4.3904   -2.6100 C   0  0  0  0  0  0  0  0  0  0  0  0
    5.8933   -3.3745   -1.9646 C   0  0  0  0  0  0  0  0  0  0  0  0
    3.6094   -1.3194   -2.8182 S   0  0  0  0  0  1  0  0  0  0  0  0
    1.0290    1.7345   -0.7574 H   0  0  0  0  0  0  0  0  0  0  0  0
   -0.3065    1.1640   -1.7866 H   0  0  0  0  0  0  0  0  0  0  0  0
   -0.6577    2.0325   -0.2731 H   0  0  0  0  0  0  0  0  0  0  0  0
   -3.4642   -1.3437    2.2061 H   0  0  0  0  0  0  0  0  0  0  0  0
   -4.5831   -0.1267   -0.3391 H   0  0  0  0  0  0  0  0  0  0  0  0
   -3.9424   -1.7874   -0.2053 H   0  0  0  0  0  0  0  0  0  0  0  0
   -6.4235   -1.7147    0.1339 H   0  0  0  0  0  0  0  0  0  0  0  0
   -5.5668   -2.2998    1.5745 H   0  0  0  0  0  0  0  0  0  0  0  0
   -6.6742    0.4945    1.1173 H   0  0  0  0  0  0  0  0  0  0  0  0
   -7.2924   -0.7250    2.2490 H   0  0  0  0  0  0  0  0  0  0  0  0
   -5.9119    1.0056    3.4079 H   0  0  0  0  0  0  0  0  0  0  0  0
   -5.1767   -0.6156    3.5408 H   0  0  0  0  0  0  0  0  0  0  0  0
   -4.4421    1.4649    1.4188 H   0  0  0  0  0  0  0  0  0  0  0  0
   -3.1625    2.2070    3.3443 H   0  0  0  0  0  0  0  0  0  0  0  0
   -3.0114    0.5340    3.9778 H   0  0  0  0  0  0  0  0  0  0  0  0
   -1.5130    1.8588    1.7128 H   0  0  0  0  0  0  0  0  0  0  0  0
    0.3529   -1.6026   -1.3486 H   0  0  0  0  0  0  0  0  0  0  0  0
    4.7720   -1.7409   -0.2344 H   0  0  0  0  0  0  0  0  0  0  0  0
    3.6889   -2.9402    0.5120 H   0  0  0  0  0  0  0  0  0  0  0  0
    3.5966   -5.2204   -0.3226 H   0  0  0  0  0  0  0  0  0  0  0  0
    4.8034   -7.0293   -1.4779 H   0  0  0  0  0  0  0  0  0  0  0  0
    6.7103   -6.4978   -2.9423 H   0  0  0  0  0  0  0  0  0  0  0  0
    7.4099   -4.1573   -3.2521 H   0  0  0  0  0  0  0  0  0  0  0  0
    6.1978   -2.3477   -2.1034 H   0  0  0  0  0  0  0  0  0  0  0  0
  1  2  1  0  0  0  0
  1 31  1  0  0  0  0
  1 32  1  0  0  0  0
  1 33  1  0  0  0  0
  2  3  1  1  0  0  0
  2  4  1  0  0  0  0
  2 18  1  0  0  0  0
  4  5  2  0  0  0  0
  4  6  1  0  0  0  0
  6 14  1  0  0  0  0
  6  7  1  0  0  0  0
  7 12  1  0  0  0  0
  7  8  1  0  0  0  0
  7 34  1  1  0  0  0
  8  9  1  0  0  0  0
  8 35  1  0  0  0  0
  8 36  1  0  0  0  0
  9 10  1  0  0  0  0
  9 37  1  0  0  0  0
  9 38  1  0  0  0  0
 10 11  1  0  0  0  0
 10 39  1  0  0  0  0
 10 40  1  0  0  0  0
 11 12  1  0  0  0  0
 11 41  1  0  0  0  0
 11 42  1  0  0  0  0
 12 13  1  0  0  0  0
 12 43  1  6  0  0  0
 13 14  1  0  0  0  0
 13 44  1  0  0  0  0
 13 45  1  0  0  0  0
 14 15  1  0  0  0  0
 14 46  1  6  0  0  0
 15 16  2  0  0  0  0
 15 17  1  0  0  0  0
 18 19  1  0  0  0  0
 18 47  1  0  0  0  0
 19 20  2  0  0  0  0
 19 21  1  0  0  0  0
 21 22  1  6  0  0  0
 21 23  1  0  0  0  0
 21 30  1  0  0  0  0
 23 24  1  0  0  0  0
 23 48  1  0  0  0  0
 23 49  1  0  0  0  0
 24 29  2  0  0  0  0
 24 25  1  0  0  0  0
 25 26  2  0  0  0  0
 25 50  1  0  0  0  0
 26 27  1  0  0  0  0
 26 51  1  0  0  0  0
 27 28  2  0  0  0  0
 27 52  1  0  0  0  0
 28 29  1  0  0  0  0
 28 53  1  0  0  0  0
 29 54  1  0  0  0  0
M  END
$$$$
CHEMBL58340
 OpenBabel01252620473D

 83 86  0  0  1  0  0  0  0  0999 V2000
    7.4408  -11.5465    5.0347 C   0  0  0  0  0  0  0  0  0  0  0  0
    6.1327  -11.2474    4.2996 C   0  0  0  0  0  0  0  0  0  0  0  0
    6.1593   -9.9064    3.8066 O   0  0  0  0  0  0  0  0  0  0  0  0
    5.0783   -9.4833    3.1328 C   0  0  0  0  0  0  0  0  0  0  0  0
    4.1404  -10.2268    2.9670 O   0  0  0  0  0  0  0  0  0  0  0  0
    5.0342   -8.0808    2.5830 C   0  0  1  0  0  0  0  0  0  0  0  0
    6.1860   -7.8839    1.5953 C   0  0  0  0  0  0  0  0  0  0  0  0
    6.2168   -6.4260    1.1319 C   0  0  0  0  0  0  0  0  0  0  0  0
    7.3512   -6.2320    0.1590 C   0  0  0  0  0  0  0  0  0  0  0  0
    8.6044   -5.8756    0.6207 C   0  0  0  0  0  0  0  0  0  0  0  0
    9.6450   -5.6976   -0.2717 C   0  0  0  0  0  0  0  0  0  0  0  0
    9.4324   -5.8766   -1.6258 C   0  0  0  0  0  0  0  0  0  0  0  0
    8.1794   -6.2339   -2.0875 C   0  0  0  0  0  0  0  0  0  0  0  0
    7.1399   -6.4160   -1.1947 C   0  0  0  0  0  0  0  0  0  0  0  0
    3.7553   -7.8652    1.8933 N   0  0  0  0  0  0  0  0  0  0  0  0
    2.7083   -7.4593    2.8404 C   0  0  1  0  0  0  0  0  0  0  0  0
    2.7730   -5.9457    3.0543 C   0  0  0  0  0  0  0  0  0  0  0  0
    1.3574   -7.8309    2.2853 C   0  0  0  0  0  0  0  0  0  0  0  0
    1.2749   -8.3798    1.2070 O   0  0  0  0  0  0  0  0  0  0  0  0
    0.2409   -7.5532    2.9873 N   0  0  0  0  0  0  0  0  0  0  0  0
    0.3106   -6.9998    4.3438 C   0  0  0  0  0  0  0  0  0  0  0  0
   -0.6719   -7.7164    5.2363 C   0  0  0  0  0  0  0  0  0  0  0  0
   -0.5786   -7.4990    6.6048 C   0  0  0  0  0  0  0  0  0  0  0  0
   -1.4556   -8.1181    7.4760 C   0  0  0  0  0  0  0  0  0  0  0  0
   -2.4401   -8.9643    6.9734 C   0  0  0  0  0  0  0  0  0  0  0  0
   -2.5265   -9.1800    5.6110 C   0  0  0  0  0  0  0  0  0  0  0  0
   -1.6386   -8.5611    4.7384 C   0  0  0  0  0  0  0  0  0  0  0  0
   -1.7783   -8.8675    3.2703 C   0  0  0  0  0  0  0  0  0  0  0  0
   -1.0978   -7.7876    2.4208 C   0  0  2  0  0  0  0  0  0  0  0  0
   -0.9727   -8.2591    0.9950 C   0  0  0  0  0  0  0  0  0  0  0  0
   -1.2373   -7.5093    0.0853 O   0  0  0  0  0  0  0  0  0  0  0  0
   -0.5672   -9.5121    0.7356 O   0  0  0  0  0  0  0  0  0  0  0  0
   -0.4713   -9.8916   -0.6388 C   0  0  0  0  0  0  0  0  0  0  0  0
   -0.0045  -11.3213   -0.7338 C   0  0  0  0  0  0  0  0  0  0  0  0
    1.3471  -11.6045   -0.7952 C   0  0  0  0  0  0  0  0  0  0  0  0
    1.7753  -12.9159   -0.8824 C   0  0  0  0  0  0  0  0  0  0  0  0
    0.8518  -13.9443   -0.9077 C   0  0  0  0  0  0  0  0  0  0  0  0
   -0.4998  -13.6611   -0.8453 C   0  0  0  0  0  0  0  0  0  0  0  0
   -0.9278  -12.3499   -0.7538 C   0  0  0  0  0  0  0  0  0  0  0  0
   -3.3128   -9.5753    7.8187 O   0  0  0  0  0  0  0  0  0  0  0  0
   -4.2957  -10.4294    7.2303 C   0  0  0  0  0  0  0  0  0  0  0  0
   -1.3569   -7.9023    8.8151 O   0  0  0  0  0  0  0  0  0  0  0  0
   -0.3212   -7.0218    9.2556 C   0  0  0  0  0  0  0  0  0  0  0  0
    7.4205  -12.5694    5.4108 H   0  0  0  0  0  0  0  0  0  0  0  0
    8.2788  -11.4285    4.3478 H   0  0  0  0  0  0  0  0  0  0  0  0
    7.5549  -10.8548    5.8693 H   0  0  0  0  0  0  0  0  0  0  0  0
    6.0185  -11.9391    3.4650 H   0  0  0  0  0  0  0  0  0  0  0  0
    5.2947  -11.3654    4.9866 H   0  0  0  0  0  0  0  0  0  0  0  0
    5.1309   -7.3668    3.4009 H   0  0  0  0  0  0  0  0  0  0  0  0
    7.1291   -8.1300    2.0831 H   0  0  0  0  0  0  0  0  0  0  0  0
    6.0414   -8.5359    0.7339 H   0  0  0  0  0  0  0  0  0  0  0  0
    5.2736   -6.1798    0.6441 H   0  0  0  0  0  0  0  0  0  0  0  0
    6.3613   -5.7740    1.9933 H   0  0  0  0  0  0  0  0  0  0  0  0
    8.7705   -5.7358    1.6787 H   0  0  0  0  0  0  0  0  0  0  0  0
   10.6239   -5.4185    0.0890 H   0  0  0  0  0  0  0  0  0  0  0  0
   10.2452   -5.7368   -2.3231 H   0  0  0  0  0  0  0  0  0  0  0  0
    8.0132   -6.3734   -3.1455 H   0  0  0  0  0  0  0  0  0  0  0  0
    6.1618   -6.6988   -1.5550 H   0  0  0  0  0  0  0  0  0  0  0  0
    3.8541   -7.1883    1.1516 H   0  0  0  0  0  0  0  0  0  0  0  0
    2.8624   -7.9677    3.7921 H   0  0  0  0  0  0  0  0  0  0  0  0
    1.9961   -5.6446    3.7570 H   0  0  0  0  0  0  0  0  0  0  0  0
    3.7501   -5.6770    3.4558 H   0  0  0  0  0  0  0  0  0  0  0  0
    2.6189   -5.4373    2.1025 H   0  0  0  0  0  0  0  0  0  0  0  0
    1.3189   -7.1293    4.7369 H   0  0  0  0  0  0  0  0  0  0  0  0
    0.0668   -5.9378    4.3151 H   0  0  0  0  0  0  0  0  0  0  0  0
    0.1856   -6.8411    6.9918 H   0  0  0  0  0  0  0  0  0  0  0  0
   -3.2905   -9.8360    5.2207 H   0  0  0  0  0  0  0  0  0  0  0  0
   -1.3193   -9.8336    3.0604 H   0  0  0  0  0  0  0  0  0  0  0  0
   -2.8364   -8.9106    3.0121 H   0  0  0  0  0  0  0  0  0  0  0  0
   -1.6794   -6.8664    2.4557 H   0  0  0  0  0  0  0  0  0  0  0  0
   -1.4490   -9.7964   -1.1111 H   0  0  0  0  0  0  0  0  0  0  0  0
    0.2421   -9.2420   -1.1461 H   0  0  0  0  0  0  0  0  0  0  0  0
    2.0686  -10.8011   -0.7754 H   0  0  0  0  0  0  0  0  0  0  0  0
    2.8313  -13.1371   -0.9310 H   0  0  0  0  0  0  0  0  0  0  0  0
    1.1863  -14.9689   -0.9765 H   0  0  0  0  0  0  0  0  0  0  0  0
   -1.2213  -14.4645   -0.8654 H   0  0  0  0  0  0  0  0  0  0  0  0
   -1.9836  -12.1289   -0.7014 H   0  0  0  0  0  0  0  0  0  0  0  0
   -4.9256  -10.8518    8.0132 H   0  0  0  0  0  0  0  0  0  0  0  0
   -4.9116   -9.8530    6.5400 H   0  0  0  0  0  0  0  0  0  0  0  0
   -3.7998  -11.2350    6.6889 H   0  0  0  0  0  0  0  0  0  0  0  0
   -0.3536   -6.9375   10.3419 H   0  0  0  0  0  0  0  0  0  0  0  0
    0.6471   -7.4185    8.9507 H   0  0  0  0  0  0  0  0  0  0  0  0
   -0.4672   -6.0377    8.8103 H   0  0  0  0  0  0  0  0  0  0  0  0
  1  2  1  0  0  0  0
  1 44  1  0  0  0  0
  1 45  1  0  0  0  0
  1 46  1  0  0  0  0
  2  3  1  0  0  0  0
  2 47  1  0  0  0  0
  2 48  1  0  0  0  0
  3  4  1  0  0  0  0
  4  5  2  0  0  0  0
  4  6  1  0  0  0  0
  6  7  1  0  0  0  0
  6 15  1  0  0  0  0
  6 49  1  1  0  0  0
  7  8  1  0  0  0  0
  7 50  1  0  0  0  0
  7 51  1  0  0  0  0
  8  9  1  0  0  0  0
  8 52  1  0  0  0  0
  8 53  1  0  0  0  0
  9 14  2  0  0  0  0
  9 10  1  0  0  0  0
 10 11  2  0  0  0  0
 10 54  1  0  0  0  0
 11 12  1  0  0  0  0
 11 55  1  0  0  0  0
 12 13  2  0  0  0  0
 12 56  1  0  0  0  0
 13 14  1  0  0  0  0
 13 57  1  0  0  0  0
 14 58  1  0  0  0  0
 15 16  1  0  0  0  0
 15 59  1  0  0  0  0
 16 17  1  0  0  0  0
 16 18  1  0  0  0  0
 16 60  1  1  0  0  0
 17 61  1  0  0  0  0
 17 62  1  0  0  0  0
 17 63  1  0  0  0  0
 18 19  2  0  0  0  0
 18 20  1  0  0  0  0
 20 29  1  0  0  0  0
 20 21  1  0  0  0  0
 21 22  1  0  0  0  0
 21 64  1  0  0  0  0
 21 65  1  0  0  0  0
 22 27  2  0  0  0  0
 22 23  1  0  0  0  0
 23 24  2  0  0  0  0
 23 66  1  0  0  0  0
 24 25  1  0  0  0  0
 24 42  1  0  0  0  0
 25 26  2  0  0  0  0
 25 40  1  0  0  0  0
 26 27  1  0  0  0  0
 26 67  1  0  0  0  0
 27 28  1  0  0  0  0
 28 29  1  0  0  0  0
 28 68  1  0  0  0  0
 28 69  1  0  0  0  0
 29 30  1  0  0  0  0
 29 70  1  1  0  0  0
 30 31  2  0  0  0  0
 30 32  1  0  0  0  0
 32 33  1  0  0  0  0
 33 34  1  0  0  0  0
 33 71  1  0  0  0  0
 33 72  1  0  0  0  0
 34 39  2  0  0  0  0
 34 35  1  0  0  0  0
 35 36  2  0  0  0  0
 35 73  1  0  0  0  0
 36 37  1  0  0  0  0
 36 74  1  0  0  0  0
 37 38  2  0  0  0  0
 37 75  1  0  0  0  0
 38 39  1  0  0  0  0
 38 76  1  0  0  0  0
 39 77  1  0  0  0  0
 40 41  1  0  0  0  0
 41 78  1  0  0  0  0
 41 79  1  0  0  0  0
 41 80  1  0  0  0  0
 42 43  1  0  0  0  0
 43 81  1  0  0  0  0
 43 82  1  0  0  0  0
 43 83  1  0  0  0  0
M  END
$$$$
CHEMBL91623
 OpenBabel01252620473D

 52 53  0  0  1  0  0  0  0  0999 V2000
   -0.0187    1.5258    0.0104 C   0  0  0  0  0  0  0  0  0  0  0  0
    0.0021   -0.0041    0.0020 C   0  0  2  0  0  0  0  0  0  0  0  0
    0.5123   -0.3556   -0.8948 H   0  0  0  0  0  0  0  0  0  0  0  0
   -1.4333   -0.5336    0.0129 C   0  0  0  0  0  0  0  0  0  0  0  0
   -2.2655   -0.0565   -1.5267 S   0  0  0  0  0  0  0  0  0  0  0  0
    0.7309   -0.5033    1.2229 C   0  0  0  0  0  0  0  0  0  0  0  0
    0.1587   -1.2128    2.0229 O   0  0  0  0  0  0  0  0  0  0  0  0
    2.0187   -0.1613    1.4257 N   0  0  0  0  0  0  0  0  0  0  0  0
    2.8296    0.6957    0.5417 C   0  0  0  0  0  0  0  0  0  0  0  0
    4.2961    0.2898    0.8322 C   0  0  1  0  0  0  0  0  0  0  0  0
    4.9810    1.1039    0.5951 H   0  0  0  0  0  0  0  0  0  0  0  0
    4.2502    0.0291    2.3610 C   0  0  0  0  0  0  0  0  0  0  0  0
    2.8456   -0.5759    2.5685 C   0  0  1  0  0  0  0  0  0  0  0  0
    2.9136   -1.6633    2.6018 H   0  0  0  0  0  0  0  0  0  0  0  0
    2.2456   -0.0576    3.8501 C   0  0  0  0  0  0  0  0  0  0  0  0
    1.2051    0.5774    3.8230 O   0  0  0  0  0  0  0  0  0  0  0  0
    2.8006   -0.2733    4.9140 O   0  0  0  0  0  1  0  0  0  0  0  0
    4.6587   -0.9272    0.1018 N   0  0  0  0  0  0  0  0  0  0  0  0
    5.1165   -0.8429   -1.1630 C   0  0  0  0  0  0  0  0  0  0  0  0
    5.2283    0.2405   -1.6965 O   0  0  0  0  0  0  0  0  0  0  0  0
    5.4895   -2.0949   -1.9144 C   0  0  1  0  0  0  0  0  0  0  0  0
    5.9754   -1.7225   -3.3166 C   0  0  0  0  0  0  0  0  0  0  0  0
    6.2316   -2.9782   -4.1094 C   0  0  0  0  0  0  0  0  0  0  0  0
    7.4798   -3.5716   -4.0800 C   0  0  0  0  0  0  0  0  0  0  0  0
    7.7148   -4.7234   -4.8072 C   0  0  0  0  0  0  0  0  0  0  0  0
    6.7015   -5.2822   -5.5635 C   0  0  0  0  0  0  0  0  0  0  0  0
    5.4531   -4.6893   -5.5922 C   0  0  0  0  0  0  0  0  0  0  0  0
    5.2169   -3.5399   -4.8616 C   0  0  0  0  0  0  0  0  0  0  0  0
    6.6055   -2.8259   -1.1653 C   0  0  0  0  0  0  0  0  0  0  0  0
    5.9829   -3.3970    0.4399 S   0  0  0  0  0  0  0  0  0  0  0  0
    1.0039    1.9031    0.0027 H   0  0  0  0  0  0  0  0  0  0  0  0
   -0.5459    1.8868   -0.8726 H   0  0  0  0  0  0  0  0  0  0  0  0
   -0.5289    1.8773    0.9072 H   0  0  0  0  0  0  0  0  0  0  0  0
   -1.4190   -1.6203    0.0965 H   0  0  0  0  0  0  0  0  0  0  0  0
   -1.9701   -0.1109    0.8621 H   0  0  0  0  0  0  0  0  0  0  0  0
   -3.5017   -0.5714   -1.4015 H   0  0  0  0  0  0  0  0  0  0  0  0
    2.5828    0.5045   -0.5026 H   0  0  0  0  0  0  0  0  0  0  0  0
    2.6719    1.7468    0.7834 H   0  0  0  0  0  0  0  0  0  0  0  0
    5.0249   -0.6791    2.6549 H   0  0  0  0  0  0  0  0  0  0  0  0
    4.3496    0.9628    2.9146 H   0  0  0  0  0  0  0  0  0  0  0  0
    4.5693   -1.7937    0.5285 H   0  0  0  0  0  0  0  0  0  0  0  0
    4.6180   -2.7449   -1.9925 H   0  0  0  0  0  0  0  0  0  0  0  0
    5.2141   -1.1251   -3.8182 H   0  0  0  0  0  0  0  0  0  0  0  0
    6.8975   -1.1463   -3.2405 H   0  0  0  0  0  0  0  0  0  0  0  0
    8.2714   -3.1351   -3.4891 H   0  0  0  0  0  0  0  0  0  0  0  0
    8.6902   -5.1866   -4.7848 H   0  0  0  0  0  0  0  0  0  0  0  0
    6.8854   -6.1817   -6.1322 H   0  0  0  0  0  0  0  0  0  0  0  0
    4.6616   -5.1257   -6.1834 H   0  0  0  0  0  0  0  0  0  0  0  0
    4.2404   -3.0787   -4.8810 H   0  0  0  0  0  0  0  0  0  0  0  0
    6.9365   -3.6825   -1.7523 H   0  0  0  0  0  0  0  0  0  0  0  0
    7.4436   -2.1467   -1.0091 H   0  0  0  0  0  0  0  0  0  0  0  0
    7.0392   -4.0156    0.9972 H   0  0  0  0  0  0  0  0  0  0  0  0
  1  2  1  0  0  0  0
  1 31  1  0  0  0  0
  1 32  1  0  0  0  0
  1 33  1  0  0  0  0
  2  3  1  6  0  0  0
  2  4  1  0  0  0  0
  2  6  1  0  0  0  0
  4  5  1  0  0  0  0
  4 34  1  0  0  0  0
  4 35  1  0  0  0  0
  5 36  1  0  0  0  0
  6  7  2  0  0  0  0
  6  8  1  0  0  0  0
  8 13  1  0  0  0  0
  8  9  1  0  0  0  0
  9 10  1  0  0  0  0
  9 37  1  0  0  0  0
  9 38  1  0  0  0  0
 10 11  1  6  0  0  0
 10 12  1  0  0  0  0
 10 18  1  0  0  0  0
 12 13  1  0  0  0  0
 12 39  1  0  0  0  0
 12 40  1  0  0  0  0
 13 14  1  1  0  0  0
 13 15  1  0  0  0  0
 15 16  2  0  0  0  0
 15 17  1  0  0  0  0
 18 19  1  0  0  0  0
 18 41  1  0  0  0  0
 19 20  2  0  0  0  0
 19 21  1  0  0  0  0
 21 22  1  0  0  0  0
 21 29  1  0  0  0  0
 21 42  1  6  0  0  0
 22 23  1  0  0  0  0
 22 43  1  0  0  0  0
 22 44  1  0  0  0  0
 23 28  2  0  0  0  0
 23 24  1  0  0  0  0
 24 25  2  0  0  0  0
 24 45  1  0  0  0  0
 25 26  1  0  0  0  0
 25 46  1  0  0  0  0
 26 27  2  0  0  0  0
 26 47  1  0  0  0  0
 27 28  1  0  0  0  0
 27 48  1  0  0  0  0
 28 49  1  0  0  0  0
 29 30  1  0  0  0  0
 29 50  1  0  0  0  0
 29 51  1  0  0  0  0
 30 52  1  0  0  0  0
M  END
$$$$
CHEMBL25771
 OpenBabel01252620473D

 45 46  0  0  1  0  0  0  0  0999 V2000
    0.2472    1.4786   -0.1380 C   0  0  0  0  0  0  0  0  0  0  0  0
    0.0484   -0.0329   -0.0089 C   0  0  1  0  0  0  0  0  0  0  0  0
    0.5291   -0.7216   -1.2877 C   0  0  0  0  0  0  0  0  0  0  0  0
   -0.5211   -0.2165   -2.6779 S   0  0  0  0  0  0  0  0  0  0  0  0
    0.8411   -0.5453    1.1660 C   0  0  0  0  0  0  0  0  0  0  0  0
    1.8437   -1.2023    0.9809 O   0  0  0  0  0  0  0  0  0  0  0  0
    0.4359   -0.2734    2.4223 N   0  0  0  0  0  0  0  0  0  0  0  0
   -0.8380    0.4138    2.6486 C   0  0  0  0  0  0  0  0  0  0  0  0
   -1.9545   -0.5976    2.6869 C   0  0  0  0  0  0  0  0  0  0  0  0
   -1.7089   -1.7826    2.5388 O   0  0  0  0  0  0  0  0  0  0  0  0
   -3.1034   -0.2309    2.8658 O   0  0  0  0  0  1  0  0  0  0  0  0
    1.2330   -0.6481    3.5120 C   0  0  0  0  0  0  0  0  0  0  0  0
    2.5113   -1.1461    3.2987 C   0  0  0  0  0  0  0  0  0  0  0  0
    3.2966   -1.5147    4.3731 C   0  0  0  0  0  0  0  0  0  0  0  0
    2.8083   -1.3879    5.6653 C   0  0  0  0  0  0  0  0  0  0  0  0
    1.5310   -0.8908    5.8791 C   0  0  0  0  0  0  0  0  0  0  0  0
    0.7470   -0.5160    4.8059 C   0  0  0  0  0  0  0  0  0  0  0  0
    3.5818   -1.7515    6.7228 O   0  0  0  0  0  0  0  0  0  0  0  0
    3.0155   -1.5941    8.0253 C   0  0  0  0  0  0  0  0  0  0  0  0
    4.0106   -2.0449    9.0635 C   0  0  0  0  0  0  0  0  0  0  0  0
    4.0282   -3.3637    9.4773 C   0  0  0  0  0  0  0  0  0  0  0  0
    4.9409   -3.7772   10.4296 C   0  0  0  0  0  0  0  0  0  0  0  0
    5.8363   -2.8719   10.9677 C   0  0  0  0  0  0  0  0  0  0  0  0
    5.8193   -1.5533   10.5533 C   0  0  0  0  0  0  0  0  0  0  0  0
    4.9094   -1.1408    9.5978 C   0  0  0  0  0  0  0  0  0  0  0  0
    1.3123    1.7006   -0.2051 H   0  0  0  0  0  0  0  0  0  0  0  0
   -0.2557    1.8358   -1.0367 H   0  0  0  0  0  0  0  0  0  0  0  0
   -0.1733    1.9763    0.7358 H   0  0  0  0  0  0  0  0  0  0  0  0
   -1.0090   -0.2485    0.1445 H   0  0  0  0  0  0  0  0  0  0  0  0
    1.5612   -0.4346   -1.4890 H   0  0  0  0  0  0  0  0  0  0  0  0
    0.4705   -1.8028   -1.1622 H   0  0  0  0  0  0  0  0  0  0  0  0
   -0.0074   -0.8775   -3.7307 H   0  0  0  0  0  0  0  0  0  0  0  0
   -0.7990    0.9481    3.5979 H   0  0  0  0  0  0  0  0  0  0  0  0
   -1.0172    1.1224    1.8400 H   0  0  0  0  0  0  0  0  0  0  0  0
    2.8914   -1.2455    2.2926 H   0  0  0  0  0  0  0  0  0  0  0  0
    4.2910   -1.9021    4.2073 H   0  0  0  0  0  0  0  0  0  0  0  0
    1.1512   -0.7930    6.8854 H   0  0  0  0  0  0  0  0  0  0  0  0
   -0.2456   -0.1245    4.9727 H   0  0  0  0  0  0  0  0  0  0  0  0
    2.7687   -0.5453    8.1899 H   0  0  0  0  0  0  0  0  0  0  0  0
    2.1107   -2.1969    8.1033 H   0  0  0  0  0  0  0  0  0  0  0  0
    3.3286   -4.0710    9.0568 H   0  0  0  0  0  0  0  0  0  0  0  0
    4.9541   -4.8074   10.7534 H   0  0  0  0  0  0  0  0  0  0  0  0
    6.5489   -3.1948   11.7123 H   0  0  0  0  0  0  0  0  0  0  0  0
    6.5186   -0.8460   10.9739 H   0  0  0  0  0  0  0  0  0  0  0  0
    4.8986   -0.1114    9.2713 H   0  0  0  0  0  0  0  0  0  0  0  0
  1  2  1  0  0  0  0
  1 26  1  0  0  0  0
  1 27  1  0  0  0  0
  1 28  1  0  0  0  0
  2  3  1  0  0  0  0
  2  5  1  0  0  0  0
  2 29  1  1  0  0  0
  3  4  1  0  0  0  0
  3 30  1  0  0  0  0
  3 31  1  0  0  0  0
  4 32  1  0  0  0  0
  5  6  2  0  0  0  0
  5  7  1  0  0  0  0
  7  8  1  0  0  0  0
  7 12  1  0  0  0  0
  8  9  1  0  0  0  0
  8 33  1  0  0  0  0
  8 34  1  0  0  0  0
  9 10  2  0  0  0  0
  9 11  1  0  0  0  0
 12 17  2  0  0  0  0
 12 13  1  0  0  0  0
 13 14  2  0  0  0  0
 13 35  1  0  0  0  0
 14 15  1  0  0  0  0
 14 36  1  0  0  0  0
 15 16  2  0  0  0  0
 15 18  1  0  0  0  0
 16 17  1  0  0  0  0
 16 37  1  0  0  0  0
 17 38  1  0  0  0  0
 18 19  1  0  0  0  0
 19 20  1  0  0  0  0
 19 39  1  0  0  0  0
 19 40  1  0  0  0  0
 20 25  2  0  0  0  0
 20 21  1  0  0  0  0
 21 22  2  0  0  0  0
 21 41  1  0  0  0  0
 22 23  1  0  0  0  0
 22 42  1  0  0  0  0
 23 24  2  0  0  0  0
 23 43  1  0  0  0  0
 24 25  1  0  0  0  0
 24 44  1  0  0  0  0
 25 45  1  0  0  0  0
M  END
$$$$
CHEMBL499610
 OpenBabel01252620473D

 48 50  0  0  1  0  0  0  0  0999 V2000
    0.0093    1.2640   -0.8348 C   0  0  0  0  0  0  0  0  0  0  0  0
    0.0059   -0.0129    0.0082 C   0  0  2  0  0  0  0  0  0  0  0  0
    0.4049    0.2048    0.9989 H   0  0  0  0  0  0  0  0  0  0  0  0
    0.8750   -1.0739   -0.6699 C   0  0  0  0  0  0  0  0  0  0  0  0
    2.6015   -0.5178   -0.6915 S   0  0  0  0  0  0  0  0  0  0  0  0
   -1.4051   -0.5263    0.1365 C   0  0  0  0  0  0  0  0  0  0  0  0
   -1.8501   -1.2909   -0.6932 O   0  0  0  0  0  0  0  0  0  0  0  0
   -2.1726   -0.1358    1.1733 N   0  0  0  0  0  0  0  0  0  0  0  0
   -1.8053    0.8754    2.1812 C   0  0  1  0  0  0  0  0  0  0  0  0
   -1.2425    1.6858    1.7180 H   0  0  0  0  0  0  0  0  0  0  0  0
   -3.1567    1.4007    2.7267 C   0  0  0  0  0  0  0  0  0  0  0  0
   -4.0126    0.1066    2.7374 C   0  0  0  0  0  0  0  0  0  0  0  0
   -3.5174   -0.6431    1.4827 C   0  0  2  0  0  0  0  0  0  0  0  0
   -4.1879   -0.4510    0.6451 H   0  0  0  0  0  0  0  0  0  0  0  0
   -3.4423   -2.4236    1.8215 S   0  0  0  0  0  0  0  0  0  0  0  0
   -5.1486   -2.9890    1.5780 C   0  0  0  0  0  0  0  0  0  0  0  0
   -5.2272   -4.4725    1.8316 C   0  0  0  0  0  0  0  0  0  0  0  0
   -5.0200   -5.3609    0.7779 C   0  0  0  0  0  0  0  0  0  0  0  0
   -5.0843   -6.7063    0.9727 C   0  0  0  0  0  0  0  0  0  0  0  0
   -5.3632   -7.2107    2.2545 C   0  0  0  0  0  0  0  0  0  0  0  0
   -5.4372   -8.5935    2.4946 C   0  0  0  0  0  0  0  0  0  0  0  0
   -5.7090   -9.0455    3.7491 C   0  0  0  0  0  0  0  0  0  0  0  0
   -5.9159   -8.1570    4.8028 C   0  0  0  0  0  0  0  0  0  0  0  0
   -5.8521   -6.8117    4.6078 C   0  0  0  0  0  0  0  0  0  0  0  0
   -5.5735   -6.3073    3.3260 C   0  0  0  0  0  0  0  0  0  0  0  0
   -5.4941   -4.9246    3.0872 C   0  0  0  0  0  0  0  0  0  0  0  0
   -1.0001    0.2445    3.2878 C   0  0  0  0  0  0  0  0  0  0  0  0
   -0.4498    0.9474    4.1183 O   0  0  0  0  0  0  0  0  0  0  0  0
   -0.8989   -0.9688    3.3527 O   0  0  0  0  0  1  0  0  0  0  0  0
    1.0255    1.6525   -0.9016 H   0  0  0  0  0  0  0  0  0  0  0  0
   -0.3605    1.0398   -1.8353 H   0  0  0  0  0  0  0  0  0  0  0  0
   -0.6346    2.0093   -0.3680 H   0  0  0  0  0  0  0  0  0  0  0  0
    0.8019   -2.0107   -0.1174 H   0  0  0  0  0  0  0  0  0  0  0  0
    0.5298   -1.2272   -1.6923 H   0  0  0  0  0  0  0  0  0  0  0  0
    3.2583   -1.5195   -1.3033 H   0  0  0  0  0  0  0  0  0  0  0  0
   -3.0422    1.8018    3.7337 H   0  0  0  0  0  0  0  0  0  0  0  0
   -3.5848    2.1467    2.0571 H   0  0  0  0  0  0  0  0  0  0  0  0
   -3.8211   -0.4749    3.6392 H   0  0  0  0  0  0  0  0  0  0  0  0
   -5.0726    0.3445    2.6484 H   0  0  0  0  0  0  0  0  0  0  0  0
   -5.8070   -2.4664    2.2719 H   0  0  0  0  0  0  0  0  0  0  0  0
   -5.4586   -2.7785    0.5545 H   0  0  0  0  0  0  0  0  0  0  0  0
   -4.8055   -4.9759   -0.2081 H   0  0  0  0  0  0  0  0  0  0  0  0
   -4.9223   -7.3828    0.1466 H   0  0  0  0  0  0  0  0  0  0  0  0
   -5.2794   -9.2937    1.6876 H   0  0  0  0  0  0  0  0  0  0  0  0
   -5.7657  -10.1086    3.9308 H   0  0  0  0  0  0  0  0  0  0  0  0
   -6.1305   -8.5420    5.7888 H   0  0  0  0  0  0  0  0  0  0  0  0
   -6.0150   -6.1351    5.4338 H   0  0  0  0  0  0  0  0  0  0  0  0
   -5.6478   -4.2245    3.8950 H   0  0  0  0  0  0  0  0  0  0  0  0
  1  2  1  0  0  0  0
  1 30  1  0  0  0  0
  1 31  1  0  0  0  0
  1 32  1  0  0  0  0
  2  3  1  1  0  0  0
  2  4  1  0  0  0  0
  2  6  1  0  0  0  0
  4  5  1  0  0  0  0
  4 33  1  0  0  0  0
  4 34  1  0  0  0  0
  5 35  1  0  0  0  0
  6  7  2  0  0  0  0
  6  8  1  0  0  0  0
  8 13  1  0  0  0  0
  8  9  1  0  0  0  0
  9 10  1  6  0  0  0
  9 11  1  0  0  0  0
  9 27  1  0  0  0  0
 11 12  1  0  0  0  0
 11 36  1  0  0  0  0
 11 37  1  0  0  0  0
 12 13  1  0  0  0  0
 12 38  1  0  0  0  0
 12 39  1  0  0  0  0
 13 14  1  6  0  0  0
 13 15  1  0  0  0  0
 15 16  1  0  0  0  0
 16 17  1  0  0  0  0
 16 40  1  0  0  0  0
 16 41  1  0  0  0  0
 17 26  2  0  0  0  0
 17 18  1  0  0  0  0
 18 19  2  0  0  0  0
 18 42  1  0  0  0  0
 19 20  1  0  0  0  0
 19 43  1  0  0  0  0
 20 25  2  0  0  0  0
 20 21  1  0  0  0  0
 21 22  2  0  0  0  0
 21 44  1  0  0  0  0
 22 23  1  0  0  0  0
 22 45  1  0  0  0  0
 23 24  2  0  0  0  0
 23 46  1  0  0  0  0
 24 25  1  0  0  0  0
 24 47  1  0  0  0  0
 25 26  1  0  0  0  0
 26 48  1  0  0  0  0
 27 28  2  0  0  0  0
 27 29  1  0  0  0  0
M  END
$$$$
CHEMBL42976
 OpenBabel01252620473D

 55 57  0  0  1  0  0  0  0  0999 V2000
   -0.0167    1.3781    0.0096 C   0  0  0  0  0  0  0  0  0  0  0  0
    1.1709    2.0855    0.0021 C   0  0  0  0  0  0  0  0  0  0  0  0
    2.3773    1.4107   -0.0130 C   0  0  0  0  0  0  0  0  0  0  0  0
    2.3960    0.0285   -0.0201 C   0  0  0  0  0  0  0  0  0  0  0  0
    1.2084   -0.6789   -0.0117 C   0  0  0  0  0  0  0  0  0  0  0  0
    0.0021   -0.0041    0.0020 C   0  0  0  0  0  0  0  0  0  0  0  0
    3.7112   -0.7071   -0.0376 C   0  0  0  0  0  0  0  0  0  0  0  0
    4.1714   -0.9633    1.3989 C   0  0  0  0  0  0  0  0  0  0  0  0
    5.7544   -1.8488    1.3779 S   0  0  0  0  0  0  0  0  0  0  0  0
    6.1558   -2.0718    3.1328 C   0  0  0  0  0  0  0  0  0  0  0  0
    7.4865   -2.8160    3.2610 C   0  0  1  0  0  0  0  0  0  0  0  0
    8.2743   -2.2374    2.7788 H   0  0  0  0  0  0  0  0  0  0  0  0
    7.8200   -3.0013    4.7190 C   0  0  0  0  0  0  0  0  0  0  0  0
    7.4394   -3.9977    5.3095 O   0  0  0  0  0  0  0  0  0  0  0  0
    8.4703   -2.1547    5.3079 O   0  0  0  0  0  1  0  0  0  0  0  0
    7.3772   -4.1298    2.6129 N   0  0  0  0  0  0  0  0  0  0  0  0
    8.6953   -4.6168    2.1847 C   0  0  1  0  0  0  0  0  0  0  0  0
    9.4477   -4.2997    2.9068 H   0  0  0  0  0  0  0  0  0  0  0  0
    8.6716   -6.1439    2.1189 C   0  0  0  0  0  0  0  0  0  0  0  0
    9.8668   -6.6389    1.3006 C   0  0  0  0  0  0  0  0  0  0  0  0
   11.1084   -5.8767    1.6778 C   0  0  0  0  0  0  0  0  0  0  0  0
   12.0641   -6.4577    2.4885 C   0  0  0  0  0  0  0  0  0  0  0  0
   13.2079   -5.7548    2.8205 C   0  0  0  0  0  0  0  0  0  0  0  0
   13.4000   -4.4711    2.3429 C   0  0  0  0  0  0  0  0  0  0  0  0
   12.4454   -3.8833    1.5351 C   0  0  0  0  0  0  0  0  0  0  0  0
   11.2950   -4.5854    1.2066 C   0  0  0  0  0  0  0  0  0  0  0  0
   10.3019   -3.9916    0.4154 N   0  0  0  0  0  0  0  0  0  0  0  0
    9.0248   -4.0359    0.8381 C   0  0  0  0  0  0  0  0  0  0  0  0
    8.1380   -3.6059    0.1312 O   0  0  0  0  0  0  0  0  0  0  0  0
   10.6475   -3.3356   -0.8481 C   0  0  0  0  0  0  0  0  0  0  0  0
   10.5801   -4.3393   -1.9702 C   0  0  0  0  0  0  0  0  0  0  0  0
   10.2720   -5.4955   -1.7362 O   0  0  0  0  0  0  0  0  0  0  0  0
   10.8337   -3.9952   -3.1120 O   0  0  0  0  0  1  0  0  0  0  0  0
   -0.9591    1.9053    0.0259 H   0  0  0  0  0  0  0  0  0  0  0  0
    1.1563    3.1654    0.0076 H   0  0  0  0  0  0  0  0  0  0  0  0
    3.3051    1.9634   -0.0196 H   0  0  0  0  0  0  0  0  0  0  0  0
    1.2231   -1.7588   -0.0176 H   0  0  0  0  0  0  0  0  0  0  0  0
   -0.9258   -0.5567    0.0082 H   0  0  0  0  0  0  0  0  0  0  0  0
    3.5884   -1.6586   -0.5549 H   0  0  0  0  0  0  0  0  0  0  0  0
    4.4573   -0.1052   -0.5563 H   0  0  0  0  0  0  0  0  0  0  0  0
    4.2941   -0.0118    1.9163 H   0  0  0  0  0  0  0  0  0  0  0  0
    3.4252   -1.5652    1.9176 H   0  0  0  0  0  0  0  0  0  0  0  0
    6.2369   -1.0970    3.6137 H   0  0  0  0  0  0  0  0  0  0  0  0
    5.3680   -2.6504    3.6151 H   0  0  0  0  0  0  0  0  0  0  0  0
    6.9254   -4.7964    3.2209 H   0  0  0  0  0  0  0  0  0  0  0  0
    8.7283   -6.5518    3.1281 H   0  0  0  0  0  0  0  0  0  0  0  0
    7.7463   -6.4728    1.6458 H   0  0  0  0  0  0  0  0  0  0  0  0
   10.0221   -7.7003    1.4943 H   0  0  0  0  0  0  0  0  0  0  0  0
    9.6627   -6.4941    0.2397 H   0  0  0  0  0  0  0  0  0  0  0  0
   11.9180   -7.4600    2.8631 H   0  0  0  0  0  0  0  0  0  0  0  0
   13.9537   -6.2099    3.4554 H   0  0  0  0  0  0  0  0  0  0  0  0
   14.2966   -3.9276    2.6019 H   0  0  0  0  0  0  0  0  0  0  0  0
   12.5942   -2.8810    1.1613 H   0  0  0  0  0  0  0  0  0  0  0  0
    9.9434   -2.5263   -1.0418 H   0  0  0  0  0  0  0  0  0  0  0  0
   11.6574   -2.9307   -0.7830 H   0  0  0  0  0  0  0  0  0  0  0  0
  1  6  2  0  0  0  0
  1  2  1  0  0  0  0
  1 34  1  0  0  0  0
  2  3  2  0  0  0  0
  2 35  1  0  0  0  0
  3  4  1  0  0  0  0
  3 36  1  0  0  0  0
  4  5  2  0  0  0  0
  4  7  1  0  0  0  0
  5  6  1  0  0  0  0
  5 37  1  0  0  0  0
  6 38  1  0  0  0  0
  7  8  1  0  0  0  0
  7 39  1  0  0  0  0
  7 40  1  0  0  0  0
  8  9  1  0  0  0  0
  8 41  1  0  0  0  0
  8 42  1  0  0  0  0
  9 10  1  0  0  0  0
 10 11  1  0  0  0  0
 10 43  1  0  0  0  0
 10 44  1  0  0  0  0
 11 12  1  6  0  0  0
 11 13  1  0  0  0  0
 11 16  1  0  0  0  0
 13 14  2  0  0  0  0
 13 15  1  0  0  0  0
 16 17  1  0  0  0  0
 16 45  1  0  0  0  0
 17 18  1  1  0  0  0
 17 28  1  0  0  0  0
 17 19  1  0  0  0  0
 19 20  1  0  0  0  0
 19 46  1  0  0  0  0
 19 47  1  0  0  0  0
 20 21  1  0  0  0  0
 20 48  1  0  0  0  0
 20 49  1  0  0  0  0
 21 26  2  0  0  0  0
 21 22  1  0  0  0  0
 22 23  2  0  0  0  0
 22 50  1  0  0  0  0
 23 24  1  0  0  0  0
 23 51  1  0  0  0  0
 24 25  2  0  0  0  0
 24 52  1  0  0  0  0
 25 26  1  0  0  0  0
 25 53  1  0  0  0  0
 26 27  1  0  0  0  0
 27 28  1  0  0  0  0
 27 30  1  0  0  0  0
 28 29  2  0  0  0  0
 30 31  1  0  0  0  0
 30 54  1  0  0  0  0
 30 55  1  0  0  0  0
 31 32  2  0  0  0  0
 31 33  1  0  0  0  0
M  END
$$$$
CHEMBL280203
 OpenBabel01252620473D

 68 70  0  0  1  0  0  0  0  0999 V2000
   -0.6259    0.1697   -1.5723 C   0  0  0  0  0  0  0  0  0  0  0  0
   -0.5310    0.2310   -0.0465 C   0  0  2  0  0  0  0  0  0  0  0  0
    0.9266    0.0491    0.3816 C   0  0  1  0  0  0  0  0  0  0  0  0
    1.5272    0.8664   -0.0178 H   0  0  0  0  0  0  0  0  0  0  0  0
    1.0123    0.0513    1.8861 C   0  0  0  0  0  0  0  0  0  0  0  0
    0.9487   -0.9935    2.4987 O   0  0  0  0  0  0  0  0  0  0  0  0
    1.1597    1.2144    2.5510 N   0  0  0  0  0  0  0  0  0  0  0  0
    1.3241    1.2102    4.0068 C   0  0  1  0  0  0  0  0  0  0  0  0
    1.7215    0.2463    4.3247 H   0  0  0  0  0  0  0  0  0  0  0  0
    2.2941    2.3212    4.4137 C   0  0  0  0  0  0  0  0  0  0  0  0
    3.6623    2.0222    3.8572 C   0  0  0  0  0  0  0  0  0  0  0  0
    4.5606    1.2761    4.5975 C   0  0  0  0  0  0  0  0  0  0  0  0
    5.8156    1.0011    4.0898 C   0  0  0  0  0  0  0  0  0  0  0  0
    6.1741    1.4738    2.8357 C   0  0  0  0  0  0  0  0  0  0  0  0
    5.2708    2.2218    2.0946 C   0  0  0  0  0  0  0  0  0  0  0  0
    4.0152    2.4897    2.6047 C   0  0  0  0  0  0  0  0  0  0  0  0
    7.4082    1.2050    2.3342 O   0  0  0  0  0  0  0  0  0  0  0  0
   -0.0118    1.4441    4.6638 C   0  0  0  0  0  0  0  0  0  0  0  0
   -0.1208    1.3488    5.8744 O   0  0  0  0  0  0  0  0  0  0  0  0
   -0.9836    1.7287    3.9847 O   0  0  0  0  0  1  0  0  0  0  0  0
    1.4316   -1.2256   -0.1345 N   0  0  0  0  0  0  0  0  0  0  0  0
    2.4342   -1.2382   -1.0351 C   0  0  0  0  0  0  0  0  0  0  0  0
    2.9183   -0.1943   -1.4184 O   0  0  0  0  0  0  0  0  0  0  0  0
    2.9537   -2.5494   -1.5660 C   0  0  2  0  0  0  0  0  0  0  0  0
    2.7543   -3.3392   -0.8417 H   0  0  0  0  0  0  0  0  0  0  0  0
    4.4617   -2.4426   -1.8019 C   0  0  0  0  0  0  0  0  0  0  0  0
    5.0019   -3.7874   -2.2152 C   0  0  0  0  0  0  0  0  0  0  0  0
    5.4435   -4.6794   -1.2559 C   0  0  0  0  0  0  0  0  0  0  0  0
    5.9391   -5.9129   -1.6350 C   0  0  0  0  0  0  0  0  0  0  0  0
    5.9927   -6.2546   -2.9734 C   0  0  0  0  0  0  0  0  0  0  0  0
    5.5503   -5.3629   -3.9326 C   0  0  0  0  0  0  0  0  0  0  0  0
    5.0507   -4.1311   -3.5532 C   0  0  0  0  0  0  0  0  0  0  0  0
    2.1231   -2.9400   -3.1306 S   0  0  0  0  0  1  0  0  0  0  0  0
   -1.3280   -0.8096    0.5226 O   0  0  0  0  0  0  0  0  0  0  0  0
   -2.2584   -0.3564    1.5080 C   0  0  0  0  0  0  0  0  0  0  0  0
   -2.9482   -1.5427    2.1308 C   0  0  0  0  0  0  0  0  0  0  0  0
   -4.1173   -2.0311    1.5779 C   0  0  0  0  0  0  0  0  0  0  0  0
   -4.7501   -3.1193    2.1492 C   0  0  0  0  0  0  0  0  0  0  0  0
   -4.2136   -3.7193    3.2730 C   0  0  0  0  0  0  0  0  0  0  0  0
   -3.0440   -3.2315    3.8253 C   0  0  0  0  0  0  0  0  0  0  0  0
   -2.4089   -2.1460    3.2515 C   0  0  0  0  0  0  0  0  0  0  0  0
   -0.3536   -0.8291   -1.9134 H   0  0  0  0  0  0  0  0  0  0  0  0
   -1.6467    0.3937   -1.8821 H   0  0  0  0  0  0  0  0  0  0  0  0
    0.0549    0.9007   -2.0084 H   0  0  0  0  0  0  0  0  0  0  0  0
   -0.8939    1.1982    0.3016 H   0  0  0  0  0  0  0  0  0  0  0  0
    1.1570    2.0542    2.0657 H   0  0  0  0  0  0  0  0  0  0  0  0
    1.9415    3.2740    4.0189 H   0  0  0  0  0  0  0  0  0  0  0  0
    2.3482    2.3761    5.5010 H   0  0  0  0  0  0  0  0  0  0  0  0
    4.2810    0.9084    5.5737 H   0  0  0  0  0  0  0  0  0  0  0  0
    6.5171    0.4189    4.6688 H   0  0  0  0  0  0  0  0  0  0  0  0
    5.5475    2.5910    1.1181 H   0  0  0  0  0  0  0  0  0  0  0  0
    3.3100    3.0682    2.0263 H   0  0  0  0  0  0  0  0  0  0  0  0
    7.4545    0.3867    1.8211 H   0  0  0  0  0  0  0  0  0  0  0  0
    1.0445   -2.0605    0.1720 H   0  0  0  0  0  0  0  0  0  0  0  0
    4.6555   -1.7153   -2.5902 H   0  0  0  0  0  0  0  0  0  0  0  0
    4.9513   -2.1213   -0.8826 H   0  0  0  0  0  0  0  0  0  0  0  0
    5.4016   -4.4125   -0.2102 H   0  0  0  0  0  0  0  0  0  0  0  0
    6.2847   -6.6095   -0.8856 H   0  0  0  0  0  0  0  0  0  0  0  0
    6.3806   -7.2180   -3.2697 H   0  0  0  0  0  0  0  0  0  0  0  0
    5.5925   -5.6297   -4.9783 H   0  0  0  0  0  0  0  0  0  0  0  0
    4.7017   -3.4359   -4.3024 H   0  0  0  0  0  0  0  0  0  0  0  0
   -1.7276    0.2015    2.2795 H   0  0  0  0  0  0  0  0  0  0  0  0
   -2.9998    0.2895    1.0378 H   0  0  0  0  0  0  0  0  0  0  0  0
   -4.5365   -1.5623    0.6999 H   0  0  0  0  0  0  0  0  0  0  0  0
   -5.6638   -3.5004    1.7177 H   0  0  0  0  0  0  0  0  0  0  0  0
   -4.7084   -4.5691    3.7197 H   0  0  0  0  0  0  0  0  0  0  0  0
   -2.6250   -3.7001    4.7035 H   0  0  0  0  0  0  0  0  0  0  0  0
   -1.4932   -1.7672    3.6808 H   0  0  0  0  0  0  0  0  0  0  0  0
  1  2  1  0  0  0  0
  1 42  1  0  0  0  0
  1 43  1  0  0  0  0
  1 44  1  0  0  0  0
  2  3  1  0  0  0  0
  2 34  1  0  0  0  0
  2 45  1  1  0  0  0
  3  4  1  6  0  0  0
  3  5  1  0  0  0  0
  3 21  1  0  0  0  0
  5  6  2  0  0  0  0
  5  7  1  0  0  0  0
  7  8  1  0  0  0  0
  7 46  1  0  0  0  0
  8  9  1  1  0  0  0
  8 10  1  0  0  0  0
  8 18  1  0  0  0  0
 10 11  1  0  0  0  0
 10 47  1  0  0  0  0
 10 48  1  0  0  0  0
 11 16  2  0  0  0  0
 11 12  1  0  0  0  0
 12 13  2  0  0  0  0
 12 49  1  0  0  0  0
 13 14  1  0  0  0  0
 13 50  1  0  0  0  0
 14 15  2  0  0  0  0
 14 17  1  0  0  0  0
 15 16  1  0  0  0  0
 15 51  1  0  0  0  0
 16 52  1  0  0  0  0
 17 53  1  0  0  0  0
 18 19  2  0  0  0  0
 18 20  1  0  0  0  0
 21 22  1  0  0  0  0
 21 54  1  0  0  0  0
 22 23  2  0  0  0  0
 22 24  1  0  0  0  0
 24 25  1  1  0  0  0
 24 26  1  0  0  0  0
 24 33  1  0  0  0  0
 26 27  1  0  0  0  0
 26 55  1  0  0  0  0
 26 56  1  0  0  0  0
 27 32  2  0  0  0  0
 27 28  1  0  0  0  0
 28 29  2  0  0  0  0
 28 57  1  0  0  0  0
 29 30  1  0  0  0  0
 29 58  1  0  0  0  0
 30 31  2  0  0  0  0
 30 59  1  0  0  0  0
 31 32  1  0  0  0  0
 31 60  1  0  0  0  0
 32 61  1  0  0  0  0
 34 35  1  0  0  0  0
 35 36  1  0  0  0  0
 35 62  1  0  0  0  0
 35 63  1  0  0  0  0
 36 41  2  0  0  0  0
 36 37  1  0  0  0  0
 37 38  2  0  0  0  0
 37 64  1  0  0  0  0
 38 39  1  0  0  0  0
 38 65  1  0  0  0  0
 39 40  2  0  0  0  0
 39 66  1  0  0  0  0
 40 41  1  0  0  0  0
 40 67  1  0  0  0  0
 41 68  1  0  0  0  0
M  END
$$$$
CHEMBL314706
 OpenBabel01252620473D

 45 46  0  0  1  0  0  0  0  0999 V2000
   -0.0476    1.4084    0.6839 C   0  0  0  0  0  0  0  0  0  0  0  0
    1.1342    2.1163    0.7988 C   0  0  0  0  0  0  0  0  0  0  0  0
    2.3461    1.4612    0.6855 C   0  0  0  0  0  0  0  0  0  0  0  0
    2.3763    0.0980    0.4579 C   0  0  0  0  0  0  0  0  0  0  0  0
    1.1945   -0.6100    0.3439 C   0  0  0  0  0  0  0  0  0  0  0  0
   -0.0174    0.0454    0.4557 C   0  0  0  0  0  0  0  0  0  0  0  0
    3.6975   -0.6161    0.3334 C   0  0  0  0  0  0  0  0  0  0  0  0
    4.1503   -1.0952    1.7141 C   0  0  0  0  0  0  0  0  0  0  0  0
    5.4917   -1.8202    1.5878 C   0  0  1  0  0  0  0  0  0  0  0  0
    5.9972   -2.1842    2.9601 C   0  0  0  0  0  0  0  0  0  0  0  0
    6.0196   -3.3513    3.3117 O   0  0  0  0  0  0  0  0  0  0  0  0
    6.3838   -1.3114    3.7186 O   0  0  0  0  0  1  0  0  0  0  0  0
    5.3150   -3.0418    0.7912 N   0  3  0  0  0  0  0  0  0  0  0  0
    6.6238   -3.6649    0.5534 C   0  0  1  0  0  0  0  0  0  0  0  0
    6.4221   -5.0565   -0.0514 C   0  0  0  0  0  0  0  0  0  0  0  0
    7.7797   -5.5726   -0.5434 C   0  0  0  0  0  0  0  0  0  0  0  0
    8.2294   -4.7156   -1.7274 C   0  0  0  0  0  0  0  0  0  0  0  0
    8.1496   -3.2995   -1.3917 N   0  0  0  0  0  0  0  0  0  0  0  0
    7.4202   -2.8087   -0.3890 C   0  0  0  0  0  0  0  0  0  0  0  0
    7.3984   -1.6066   -0.2299 O   0  0  0  0  0  0  0  0  0  0  0  0
    8.9193   -2.3563   -2.2065 C   0  0  0  0  0  0  0  0  0  0  0  0
    8.0755   -1.8872   -3.3637 C   0  0  0  0  0  0  0  0  0  0  0  0
    6.9367   -2.3023   -3.4955 O   0  0  0  0  0  0  0  0  0  0  0  0
    8.5316   -1.0925   -4.1681 O   0  0  0  0  0  1  0  0  0  0  0  0
   -0.9944    1.9196    0.7768 H   0  0  0  0  0  0  0  0  0  0  0  0
    1.1106    3.1813    0.9766 H   0  0  0  0  0  0  0  0  0  0  0  0
    3.2694    2.0143    0.7746 H   0  0  0  0  0  0  0  0  0  0  0  0
    1.2181   -1.6750    0.1657 H   0  0  0  0  0  0  0  0  0  0  0  0
   -0.9407   -0.5077    0.3663 H   0  0  0  0  0  0  0  0  0  0  0  0
    3.5860   -1.4736   -0.3302 H   0  0  0  0  0  0  0  0  0  0  0  0
    4.4421    0.0663   -0.0766 H   0  0  0  0  0  0  0  0  0  0  0  0
    4.2618   -0.2378    2.3778 H   0  0  0  0  0  0  0  0  0  0  0  0
    3.4057   -1.7776    2.1241 H   0  0  0  0  0  0  0  0  0  0  0  0
    6.2128   -1.1671    1.0964 H   0  0  0  0  0  0  0  0  0  0  0  0
    4.7214   -3.6865    1.2913 H   0  0  0  0  0  0  0  0  0  0  0  0
    7.1584   -3.7565    1.4989 H   0  0  0  0  0  0  0  0  0  0  0  0
    6.0255   -5.7321    0.7065 H   0  0  0  0  0  0  0  0  0  0  0  0
    5.7272   -4.9954   -0.8890 H   0  0  0  0  0  0  0  0  0  0  0  0
    8.5121   -5.4989    0.2604 H   0  0  0  0  0  0  0  0  0  0  0  0
    7.6833   -6.6113   -0.8595 H   0  0  0  0  0  0  0  0  0  0  0  0
    9.2583   -4.9675   -1.9843 H   0  0  0  0  0  0  0  0  0  0  0  0
    7.5872   -4.9195   -2.5842 H   0  0  0  0  0  0  0  0  0  0  0  0
    9.2075   -1.5002   -1.5965 H   0  0  0  0  0  0  0  0  0  0  0  0
    9.8140   -2.8498   -2.5859 H   0  0  0  0  0  0  0  0  0  0  0  0
    4.8882   -2.8080   -0.0927 H   0  0  0  0  0  0  0  0  0  0  0  0
  1  6  2  0  0  0  0
  1  2  1  0  0  0  0
  1 25  1  0  0  0  0
  2  3  2  0  0  0  0
  2 26  1  0  0  0  0
  3  4  1  0  0  0  0
  3 27  1  0  0  0  0
  4  5  2  0  0  0  0
  4  7  1  0  0  0  0
  5  6  1  0  0  0  0
  5 28  1  0  0  0  0
  6 29  1  0  0  0  0
  7  8  1  0  0  0  0
  7 30  1  0  0  0  0
  7 31  1  0  0  0  0
  8  9  1  0  0  0  0
  8 32  1  0  0  0  0
  8 33  1  0  0  0  0
  9 10  1  0  0  0  0
  9 13  1  0  0  0  0
  9 34  1  6  0  0  0
 10 11  2  0  0  0  0
 10 12  1  0  0  0  0
 13 14  1  0  0  0  0
 13 35  1  0  0  0  0
 13 45  1  0  0  0  0
 14 19  1  0  0  0  0
 14 15  1  0  0  0  0
 14 36  1  1  0  0  0
 15 16  1  0  0  0  0
 15 37  1  0  0  0  0
 15 38  1  0  0  0  0
 16 17  1  0  0  0  0
 16 39  1  0  0  0  0
 16 40  1  0  0  0  0
 17 18  1  0  0  0  0
 17 41  1  0  0  0  0
 17 42  1  0  0  0  0
 18 19  1  0  0  0  0
 18 21  1  0  0  0  0
 19 20  2  0  0  0  0
 21 22  1  0  0  0  0
 21 43  1  0  0  0  0
 21 44  1  0  0  0  0
 22 23  2  0  0  0  0
 22 24  1  0  0  0  0
M  CHG  1  13   1
M  END
$$$$
CHEMBL109178
 OpenBabel01252620473D

 61 63  0  0  1  0  0  0  0  0999 V2000
   -0.4185    1.2861   -0.1345 C   0  0  0  0  0  0  0  0  0  0  0  0
   -0.2111   -0.2288   -0.0808 C   0  0  2  0  0  0  0  0  0  0  0  0
   -1.5505   -0.9193   -0.0747 C   0  0  0  0  0  0  0  0  0  0  0  0
   -1.8985   -1.5594    0.8949 O   0  0  0  0  0  0  0  0  0  0  0  0
   -2.3618   -0.8256   -1.1469 N   0  0  0  0  0  0  0  0  0  0  0  0
   -2.0632   -0.0892   -2.3886 C   0  0  0  0  0  0  0  0  0  0  0  0
   -2.9379   -0.7677   -3.4722 C   0  0  0  0  0  0  0  0  0  0  0  0
   -4.2295   -1.0878   -2.6744 C   0  0  0  0  0  0  0  0  0  0  0  0
   -3.6886   -1.4461   -1.2743 C   0  0  2  0  0  0  0  0  0  0  0  0
   -4.6129   -0.9014   -0.2159 C   0  0  0  0  0  0  0  0  0  0  0  0
   -4.4609    0.2344    0.2003 O   0  0  0  0  0  0  0  0  0  0  0  0
   -5.5126   -1.5966    0.2241 O   0  0  0  0  0  1  0  0  0  0  0  0
    0.5059   -0.5696    1.1075 O   0  0  0  0  0  0  0  0  0  0  0  0
    1.9339   -1.3128    1.0873 P   0  0  1  0  0  0  0  0  0  0  0  0
    2.9226   -0.5052    0.2170 O   0  0  0  0  0  0  0  0  0  0  0  0
    2.5800   -1.4341    2.7876 C   0  0  1  0  0  0  0  0  0  0  0  0
    1.5489   -2.1325    3.6764 C   0  0  0  0  0  0  0  0  0  0  0  0
    2.0334   -2.1184    5.1276 C   0  0  0  0  0  0  0  0  0  0  0  0
    0.9680   -2.7031    6.0186 C   0  0  0  0  0  0  0  0  0  0  0  0
    0.0018   -1.8828    6.5705 C   0  0  0  0  0  0  0  0  0  0  0  0
   -0.9755   -2.4190    7.3879 C   0  0  0  0  0  0  0  0  0  0  0  0
   -0.9870   -3.7757    7.6530 C   0  0  0  0  0  0  0  0  0  0  0  0
   -0.0214   -4.5961    7.1004 C   0  0  0  0  0  0  0  0  0  0  0  0
    0.9534   -4.0605    6.2796 C   0  0  0  0  0  0  0  0  0  0  0  0
    3.8244   -2.2071    2.7832 N   0  0  0  0  0  0  0  0  0  0  0  0
    5.0085   -1.5790    2.9243 C   0  0  0  0  0  0  0  0  0  0  0  0
    5.0438   -0.3710    3.0552 O   0  0  0  0  0  0  0  0  0  0  0  0
    6.2643   -2.3591    2.9198 C   0  0  0  0  0  0  0  0  0  0  0  0
    6.2276   -3.7457    2.7639 C   0  0  0  0  0  0  0  0  0  0  0  0
    7.4031   -4.4677    2.7602 C   0  0  0  0  0  0  0  0  0  0  0  0
    8.6166   -3.8203    2.9110 C   0  0  0  0  0  0  0  0  0  0  0  0
    8.6600   -2.4462    3.0664 C   0  0  0  0  0  0  0  0  0  0  0  0
    7.4922   -1.7117    3.0657 C   0  0  0  0  0  0  0  0  0  0  0  0
    1.7681   -2.7310    0.4970 O   0  0  0  0  0  1  0  0  0  0  0  0
    0.5504    1.7856   -0.1388 H   0  0  0  0  0  0  0  0  0  0  0  0
   -0.9653    1.5461   -1.0408 H   0  0  0  0  0  0  0  0  0  0  0  0
   -0.9882    1.6060    0.7380 H   0  0  0  0  0  0  0  0  0  0  0  0
    0.3587   -0.5487   -0.9532 H   0  0  0  0  0  0  0  0  0  0  0  0
   -2.3371    0.9605   -2.2824 H   0  0  0  0  0  0  0  0  0  0  0  0
   -1.0068   -0.1827   -2.6404 H   0  0  0  0  0  0  0  0  0  0  0  0
   -3.1456   -0.0811   -4.2929 H   0  0  0  0  0  0  0  0  0  0  0  0
   -2.4682   -1.6807   -3.8381 H   0  0  0  0  0  0  0  0  0  0  0  0
   -4.8808   -0.2150   -2.6285 H   0  0  0  0  0  0  0  0  0  0  0  0
   -4.7526   -1.9379   -3.1123 H   0  0  0  0  0  0  0  0  0  0  0  0
   -3.6031   -2.5280   -1.1735 H   0  0  0  0  0  0  0  0  0  0  0  0
    2.7750   -0.4338    3.1744 H   0  0  0  0  0  0  0  0  0  0  0  0
    0.5952   -1.6092    3.6067 H   0  0  0  0  0  0  0  0  0  0  0  0
    1.4227   -3.1634    3.3454 H   0  0  0  0  0  0  0  0  0  0  0  0
    2.9439   -2.7118    5.2124 H   0  0  0  0  0  0  0  0  0  0  0  0
    2.2389   -1.0922    5.4321 H   0  0  0  0  0  0  0  0  0  0  0  0
    0.0108   -0.8229    6.3634 H   0  0  0  0  0  0  0  0  0  0  0  0
   -1.7299   -1.7781    7.8196 H   0  0  0  0  0  0  0  0  0  0  0  0
   -1.7502   -4.1946    8.2921 H   0  0  0  0  0  0  0  0  0  0  0  0
   -0.0302   -5.6560    7.3078 H   0  0  0  0  0  0  0  0  0  0  0  0
    1.7056   -4.7020    5.8448 H   0  0  0  0  0  0  0  0  0  0  0  0
    3.7962   -3.1711    2.6787 H   0  0  0  0  0  0  0  0  0  0  0  0
    5.2810   -4.2522    2.6468 H   0  0  0  0  0  0  0  0  0  0  0  0
    7.3761   -5.5406    2.6396 H   0  0  0  0  0  0  0  0  0  0  0  0
    9.5340   -4.3902    2.9077 H   0  0  0  0  0  0  0  0  0  0  0  0
    9.6105   -1.9470    3.1840 H   0  0  0  0  0  0  0  0  0  0  0  0
    7.5277   -0.6386    3.1822 H   0  0  0  0  0  0  0  0  0  0  0  0
  1  2  1  0  0  0  0
  1 35  1  0  0  0  0
  1 36  1  0  0  0  0
  1 37  1  0  0  0  0
  2  3  1  0  0  0  0
  2 13  1  0  0  0  0
  2 38  1  6  0  0  0
  3  4  2  0  0  0  0
  3  5  1  0  0  0  0
  5  9  1  0  0  0  0
  5  6  1  0  0  0  0
  6  7  1  0  0  0  0
  6 39  1  0  0  0  0
  6 40  1  0  0  0  0
  7  8  1  0  0  0  0
  7 41  1  0  0  0  0
  7 42  1  0  0  0  0
  8  9  1  0  0  0  0
  8 43  1  0  0  0  0
  8 44  1  0  0  0  0
  9 10  1  0  0  0  0
  9 45  1  1  0  0  0
 10 11  2  0  0  0  0
 10 12  1  0  0  0  0
 13 14  1  0  0  0  0
 14 15  2  6  0  0  0
 14 16  1  0  0  0  0
 14 34  1  0  0  0  0
 16 17  1  0  0  0  0
 16 25  1  0  0  0  0
 16 46  1  1  0  0  0
 17 18  1  0  0  0  0
 17 47  1  0  0  0  0
 17 48  1  0  0  0  0
 18 19  1  0  0  0  0
 18 49  1  0  0  0  0
 18 50  1  0  0  0  0
 19 24  2  0  0  0  0
 19 20  1  0  0  0  0
 20 21  2  0  0  0  0
 20 51  1  0  0  0  0
 21 22  1  0  0  0  0
 21 52  1  0  0  0  0
 22 23  2  0  0  0  0
 22 53  1  0  0  0  0
 23 24  1  0  0  0  0
 23 54  1  0  0  0  0
 24 55  1  0  0  0  0
 25 26  1  0  0  0  0
 25 56  1  0  0  0  0
 26 27  2  0  0  0  0
 26 28  1  0  0  0  0
 28 33  2  0  0  0  0
 28 29  1  0  0  0  0
 29 30  2  0  0  0  0
 29 57  1  0  0  0  0
 30 31  1  0  0  0  0
 30 58  1  0  0  0  0
 31 32  2  0  0  0  0
 31 59  1  0  0  0  0
 32 33  1  0  0  0  0
 32 60  1  0  0  0  0
 33 61  1  0  0  0  0
M  END
$$$$
CHEMBL282469
 OpenBabel01252620473D

 47 48  0  0  1  0  0  0  0  0999 V2000
    0.9377   -1.2830    1.3730 C   0  0  0  0  0  0  0  0  0  0  0  0
   -0.0633   -2.3532    1.8129 C   0  0  1  0  0  0  0  0  0  0  0  0
   -0.0987   -2.3920    2.9017 H   0  0  0  0  0  0  0  0  0  0  0  0
   -1.4303   -2.0129    1.2776 C   0  0  0  0  0  0  0  0  0  0  0  0
   -1.9012   -2.6565    0.3639 O   0  0  0  0  0  0  0  0  0  0  0  0
   -2.1295   -0.9934    1.8144 N   0  0  0  0  0  0  0  0  0  0  0  0
   -1.5281   -0.1321    2.8416 C   0  0  0  0  0  0  0  0  0  0  0  0
   -1.6530    1.3281    2.3955 C   0  0  0  0  0  0  0  0  0  0  0  0
   -3.1201    1.6413    2.0929 C   0  0  0  0  0  0  0  0  0  0  0  0
   -3.6104    0.7446    0.9537 C   0  0  0  0  0  0  0  0  0  0  0  0
   -3.5056   -0.7184    1.3791 C   0  0  1  0  0  0  0  0  0  0  0  0
   -3.8539   -1.6075    0.2132 C   0  0  0  0  0  0  0  0  0  0  0  0
   -4.7801   -2.3953    0.3026 O   0  0  0  0  0  0  0  0  0  0  0  0
   -3.2094   -1.5390   -0.8195 O   0  0  0  0  0  1  0  0  0  0  0  0
    0.3548   -3.6568    1.2912 N   0  0  0  0  0  0  0  0  0  0  0  0
    1.2508   -4.3990    1.9716 C   0  0  0  0  0  0  0  0  0  0  0  0
    1.7109   -3.9878    3.0156 O   0  0  0  0  0  0  0  0  0  0  0  0
    1.6809   -5.7400    1.4349 C   0  0  2  0  0  0  0  0  0  0  0  0
    0.8995   -6.1404    0.7890 H   0  0  0  0  0  0  0  0  0  0  0  0
    1.9223   -6.7019    2.5999 C   0  0  0  0  0  0  0  0  0  0  0  0
    2.2326   -8.0749    2.0617 C   0  0  0  0  0  0  0  0  0  0  0  0
    1.2084   -8.9733    1.8276 C   0  0  0  0  0  0  0  0  0  0  0  0
    1.4931  -10.2327    1.3338 C   0  0  0  0  0  0  0  0  0  0  0  0
    2.8019  -10.5935    1.0738 C   0  0  0  0  0  0  0  0  0  0  0  0
    3.8260   -9.6948    1.3070 C   0  0  0  0  0  0  0  0  0  0  0  0
    3.5410   -8.4339    1.7967 C   0  0  0  0  0  0  0  0  0  0  0  0
    3.2127   -5.5471    0.4827 S   0  0  0  0  0  1  0  0  0  0  0  0
    1.9083   -1.4852    1.8257 H   0  0  0  0  0  0  0  0  0  0  0  0
    1.0327   -1.2988    0.2872 H   0  0  0  0  0  0  0  0  0  0  0  0
    0.5850   -0.3023    1.6925 H   0  0  0  0  0  0  0  0  0  0  0  0
   -2.0516   -0.2712    3.7874 H   0  0  0  0  0  0  0  0  0  0  0  0
   -0.4757   -0.3884    2.9629 H   0  0  0  0  0  0  0  0  0  0  0  0
   -1.2977    1.9832    3.1910 H   0  0  0  0  0  0  0  0  0  0  0  0
   -1.0545    1.4869    1.4984 H   0  0  0  0  0  0  0  0  0  0  0  0
   -3.7215    1.4586    2.9834 H   0  0  0  0  0  0  0  0  0  0  0  0
   -3.2152    2.6866    1.7990 H   0  0  0  0  0  0  0  0  0  0  0  0
   -4.6484    0.9844    0.7231 H   0  0  0  0  0  0  0  0  0  0  0  0
   -2.9936    0.9089    0.0702 H   0  0  0  0  0  0  0  0  0  0  0  0
   -4.1940   -0.9065    2.2030 H   0  0  0  0  0  0  0  0  0  0  0  0
   -0.0132   -3.9857    0.4562 H   0  0  0  0  0  0  0  0  0  0  0  0
    2.7628   -6.3468    3.1961 H   0  0  0  0  0  0  0  0  0  0  0  0
    1.0292   -6.7493    3.2230 H   0  0  0  0  0  0  0  0  0  0  0  0
    0.1858   -8.6914    2.0308 H   0  0  0  0  0  0  0  0  0  0  0  0
    0.6930  -10.9348    1.1516 H   0  0  0  0  0  0  0  0  0  0  0  0
    3.0244  -11.5777    0.6887 H   0  0  0  0  0  0  0  0  0  0  0  0
    4.8486   -9.9768    1.1041 H   0  0  0  0  0  0  0  0  0  0  0  0
    4.3407   -7.7304    1.9754 H   0  0  0  0  0  0  0  0  0  0  0  0
  1  2  1  0  0  0  0
  1 28  1  0  0  0  0
  1 29  1  0  0  0  0
  1 30  1  0  0  0  0
  2  3  1  1  0  0  0
  2  4  1  0  0  0  0
  2 15  1  0  0  0  0
  4  5  2  0  0  0  0
  4  6  1  0  0  0  0
  6 11  1  0  0  0  0
  6  7  1  0  0  0  0
  7  8  1  0  0  0  0
  7 31  1  0  0  0  0
  7 32  1  0  0  0  0
  8  9  1  0  0  0  0
  8 33  1  0  0  0  0
  8 34  1  0  0  0  0
  9 10  1  0  0  0  0
  9 35  1  0  0  0  0
  9 36  1  0  0  0  0
 10 11  1  0  0  0  0
 10 37  1  0  0  0  0
 10 38  1  0  0  0  0
 11 12  1  0  0  0  0
 11 39  1  1  0  0  0
 12 13  2  0  0  0  0
 12 14  1  0  0  0  0
 15 16  1  0  0  0  0
 15 40  1  0  0  0  0
 16 17  2  0  0  0  0
 16 18  1  0  0  0  0
 18 19  1  6  0  0  0
 18 20  1  0  0  0  0
 18 27  1  0  0  0  0
 20 21  1  0  0  0  0
 20 41  1  0  0  0  0
 20 42  1  0  0  0  0
 21 26  2  0  0  0  0
 21 22  1  0  0  0  0
 22 23  2  0  0  0  0
 22 43  1  0  0  0  0
 23 24  1  0  0  0  0
 23 44  1  0  0  0  0
 24 25  2  0  0  0  0
 24 45  1  0  0  0  0
 25 26  1  0  0  0  0
 25 46  1  0  0  0  0
 26 47  1  0  0  0  0
M  END
$$$$
CHEMBL368667
 OpenBabel01252620473D

 50 52  0  0  1  0  0  0  0  0999 V2000
   -3.1940   -2.3603    0.5604 C   0  0  0  0  0  0  0  0  0  0  0  0
   -2.5983   -1.0938    1.1786 C   0  0  1  0  0  0  0  0  0  0  0  0
   -1.7038   -1.4750    2.3599 C   0  0  0  0  0  0  0  0  0  0  0  0
   -2.7156   -2.2181    3.6694 S   0  0  0  0  0  0  0  0  0  0  0  0
   -1.5561   -2.5970    4.9408 C   0  0  0  0  0  0  0  0  0  0  0  0
   -0.3778   -2.3396    4.7855 O   0  0  0  0  0  0  0  0  0  0  0  0
   -2.0156   -3.2278    6.1963 C   0  0  0  0  0  0  0  0  0  0  0  0
   -3.3665   -3.5298    6.3754 C   0  0  0  0  0  0  0  0  0  0  0  0
   -3.7887   -4.1189    7.5493 C   0  0  0  0  0  0  0  0  0  0  0  0
   -2.8765   -4.4099    8.5480 C   0  0  0  0  0  0  0  0  0  0  0  0
   -1.5360   -4.1130    8.3768 C   0  0  0  0  0  0  0  0  0  0  0  0
   -1.0997   -3.5292    7.2055 C   0  0  0  0  0  0  0  0  0  0  0  0
   -1.7800   -0.3664    0.1431 C   0  0  0  0  0  0  0  0  0  0  0  0
   -0.6220   -0.0876    0.3716 O   0  0  0  0  0  0  0  0  0  0  0  0
   -2.3350   -0.0256   -1.0369 N   0  0  0  0  0  0  0  0  0  0  0  0
   -3.7483   -0.1664   -1.3970 C   0  0  1  0  0  0  0  0  0  0  0  0
   -3.8957   -1.1517   -1.8392 H   0  0  0  0  0  0  0  0  0  0  0  0
   -4.6768   -0.0264   -0.2121 C   0  0  0  0  0  0  0  0  0  0  0  0
   -4.6424    1.3933    0.3538 C   0  0  0  0  0  0  0  0  0  0  0  0
   -5.0641    2.3660   -0.7527 C   0  0  0  0  0  0  0  0  0  0  0  0
   -4.0417    2.2922   -1.8842 C   0  0  0  0  0  0  0  0  0  0  0  0
   -4.0097    0.8981   -2.4784 C   0  0  1  0  0  0  0  0  0  0  0  0
   -4.8972    0.6822   -3.0731 H   0  0  0  0  0  0  0  0  0  0  0  0
   -2.6821    0.8091   -3.2919 C   0  0  0  0  0  0  0  0  0  0  0  0
   -1.6284    0.5603   -2.1902 C   0  0  1  0  0  0  0  0  0  0  0  0
   -0.8714   -0.1346   -2.5536 H   0  0  0  0  0  0  0  0  0  0  0  0
   -0.9841    1.8624   -1.7895 C   0  0  0  0  0  0  0  0  0  0  0  0
   -0.3074    2.4805   -2.5936 O   0  0  0  0  0  0  0  0  0  0  0  0
   -1.1397    2.2978   -0.6614 O   0  0  0  0  0  1  0  0  0  0  0  0
   -3.8942   -2.8126    1.2626 H   0  0  0  0  0  0  0  0  0  0  0  0
   -3.7178   -2.1034   -0.3604 H   0  0  0  0  0  0  0  0  0  0  0  0
   -2.3944   -3.0670    0.3385 H   0  0  0  0  0  0  0  0  0  0  0  0
   -3.4031   -0.4461    1.5264 H   0  0  0  0  0  0  0  0  0  0  0  0
   -0.9525   -2.1925    2.0300 H   0  0  0  0  0  0  0  0  0  0  0  0
   -1.2100   -0.5827    2.7445 H   0  0  0  0  0  0  0  0  0  0  0  0
   -4.0797   -3.3026    5.5969 H   0  0  0  0  0  0  0  0  0  0  0  0
   -4.8337   -4.3531    7.6891 H   0  0  0  0  0  0  0  0  0  0  0  0
   -3.2123   -4.8704    9.4653 H   0  0  0  0  0  0  0  0  0  0  0  0
   -0.8290   -4.3424    9.1604 H   0  0  0  0  0  0  0  0  0  0  0  0
   -0.0525   -3.3018    7.0714 H   0  0  0  0  0  0  0  0  0  0  0  0
   -5.6939   -0.2612   -0.5257 H   0  0  0  0  0  0  0  0  0  0  0  0
   -4.3727   -0.7279    0.5648 H   0  0  0  0  0  0  0  0  0  0  0  0
   -5.3333    1.4706    1.1933 H   0  0  0  0  0  0  0  0  0  0  0  0
   -3.6320    1.6315    0.6864 H   0  0  0  0  0  0  0  0  0  0  0  0
   -6.0478    2.0865   -1.1299 H   0  0  0  0  0  0  0  0  0  0  0  0
   -5.0969    3.3803   -0.3551 H   0  0  0  0  0  0  0  0  0  0  0  0
   -4.3110    3.0103   -2.6588 H   0  0  0  0  0  0  0  0  0  0  0  0
   -3.0549    2.5400   -1.4932 H   0  0  0  0  0  0  0  0  0  0  0  0
   -2.7149   -0.0228   -3.9955 H   0  0  0  0  0  0  0  0  0  0  0  0
   -2.4824    1.7472   -3.8098 H   0  0  0  0  0  0  0  0  0  0  0  0
  1  2  1  0  0  0  0
  1 30  1  0  0  0  0
  1 31  1  0  0  0  0
  1 32  1  0  0  0  0
  2  3  1  0  0  0  0
  2 13  1  0  0  0  0
  2 33  1  1  0  0  0
  3  4  1  0  0  0  0
  3 34  1  0  0  0  0
  3 35  1  0  0  0  0
  4  5  1  0  0  0  0
  5  6  2  0  0  0  0
  5  7  1  0  0  0  0
  7 12  2  0  0  0  0
  7  8  1  0  0  0  0
  8  9  2  0  0  0  0
  8 36  1  0  0  0  0
  9 10  1  0  0  0  0
  9 37  1  0  0  0  0
 10 11  2  0  0  0  0
 10 38  1  0  0  0  0
 11 12  1  0  0  0  0
 11 39  1  0  0  0  0
 12 40  1  0  0  0  0
 13 14  2  0  0  0  0
 13 15  1  0  0  0  0
 15 25  1  0  0  0  0
 15 16  1  0  0  0  0
 16 17  1  6  0  0  0
 16 22  1  0  0  0  0
 16 18  1  0  0  0  0
 18 19  1  0  0  0  0
 18 41  1  0  0  0  0
 18 42  1  0  0  0  0
 19 20  1  0  0  0  0
 19 43  1  0  0  0  0
 19 44  1  0  0  0  0
 20 21  1  0  0  0  0
 20 45  1  0  0  0  0
 20 46  1  0  0  0  0
 21 22  1  0  0  0  0
 21 47  1  0  0  0  0
 21 48  1  0  0  0  0
 22 23  1  6  0  0  0
 22 24  1  0  0  0  0
 24 25  1  0  0  0  0
 24 49  1  0  0  0  0
 24 50  1  0  0  0  0
 25 26  1  6  0  0  0
 25 27  1  0  0  0  0
 27 28  2  0  0  0  0
 27 29  1  0  0  0  0
M  END
$$$$
CHEMBL360681
 OpenBabel01252620473D

 66 69  0  0  1  0  0  0  0  0999 V2000
   -0.0167    1.3781    0.0096 C   0  0  0  0  0  0  0  0  0  0  0  0
    1.1709    2.0855    0.0021 C   0  0  0  0  0  0  0  0  0  0  0  0
    2.3773    1.4107   -0.0130 C   0  0  0  0  0  0  0  0  0  0  0  0
    2.3960    0.0285   -0.0201 C   0  0  0  0  0  0  0  0  0  0  0  0
    1.2084   -0.6789   -0.0117 C   0  0  0  0  0  0  0  0  0  0  0  0
    0.0021   -0.0041    0.0020 C   0  0  0  0  0  0  0  0  0  0  0  0
    3.7112   -0.7071   -0.0376 C   0  0  0  0  0  0  0  0  0  0  0  0
    4.1714   -0.9633    1.3989 C   0  0  2  0  0  0  0  0  0  0  0  0
    5.5425   -1.5884    1.3832 C   0  0  0  0  0  0  0  0  0  0  0  0
    5.6641   -2.7810    1.5283 O   0  0  0  0  0  0  0  0  0  0  0  0
    6.7620   -0.7251    1.1865 C   0  0  0  0  0  0  0  0  0  0  0  0
    8.0162   -1.6009    1.2113 C   0  0  0  0  0  0  0  0  0  0  0  0
    9.2357   -0.7377    1.0145 C   0  0  0  0  0  0  0  0  0  0  0  0
    9.1136    0.4602    0.8688 O   0  0  0  0  0  0  0  0  0  0  0  0
   10.4620   -1.2967    1.0005 N   0  0  0  0  0  0  0  0  0  0  0  0
   11.7266   -0.6004    0.8279 C   0  0  1  0  0  0  0  0  0  0  0  0
   11.8204    0.8251    1.3298 C   0  0  0  0  0  0  0  0  0  0  0  0
   13.2311    1.3374    0.9949 C   0  0  0  0  0  0  0  0  0  0  0  0
   14.3066    0.4474    1.6105 C   0  0  0  0  0  0  0  0  0  0  0  0
   14.1289   -1.0213    1.1936 C   0  0  0  0  0  0  0  0  0  0  0  0
   12.7414   -1.4520    1.6384 C   0  0  2  0  0  0  0  0  0  0  0  0
   12.3224   -2.8642    1.2010 C   0  0  0  0  0  0  0  0  0  0  0  0
   10.7753   -2.7360    1.1644 C   0  0  1  0  0  0  0  0  0  0  0  0
   10.1845   -3.2465    2.4534 C   0  0  0  0  0  0  0  0  0  0  0  0
   10.1724   -4.4432    2.6866 O   0  0  0  0  0  0  0  0  0  0  0  0
    9.7188   -2.4629    3.2630 O   0  0  0  0  0  1  0  0  0  0  0  0
    3.2289   -1.8699    2.0593 N   0  0  0  0  0  0  0  0  0  0  0  0
    2.1163   -1.3790    2.6404 C   0  0  0  0  0  0  0  0  0  0  0  0
    1.8949   -0.1840    2.6165 O   0  0  0  0  0  0  0  0  0  0  0  0
    1.1652   -2.2939    3.3068 C   0  0  0  0  0  0  0  0  0  0  0  0
    1.4194   -3.6659    3.3410 C   0  0  0  0  0  0  0  0  0  0  0  0
    0.5281   -4.5141    3.9649 C   0  0  0  0  0  0  0  0  0  0  0  0
   -0.6160   -4.0075    4.5555 C   0  0  0  0  0  0  0  0  0  0  0  0
   -0.8742   -2.6485    4.5247 C   0  0  0  0  0  0  0  0  0  0  0  0
    0.0121   -1.7887    3.9095 C   0  0  0  0  0  0  0  0  0  0  0  0
   -0.9591    1.9053    0.0259 H   0  0  0  0  0  0  0  0  0  0  0  0
    1.1563    3.1654    0.0076 H   0  0  0  0  0  0  0  0  0  0  0  0
    3.3051    1.9634   -0.0196 H   0  0  0  0  0  0  0  0  0  0  0  0
    1.2231   -1.7588   -0.0176 H   0  0  0  0  0  0  0  0  0  0  0  0
   -0.9258   -0.5567    0.0082 H   0  0  0  0  0  0  0  0  0  0  0  0
    3.5884   -1.6586   -0.5549 H   0  0  0  0  0  0  0  0  0  0  0  0
    4.4573   -0.1052   -0.5563 H   0  0  0  0  0  0  0  0  0  0  0  0
    4.2087   -0.0191    1.9423 H   0  0  0  0  0  0  0  0  0  0  0  0
    6.6944   -0.2144    0.2259 H   0  0  0  0  0  0  0  0  0  0  0  0
    6.8180    0.0125    1.9870 H   0  0  0  0  0  0  0  0  0  0  0  0
    8.0838   -2.1117    2.1718 H   0  0  0  0  0  0  0  0  0  0  0  0
    7.9602   -2.3385    0.4107 H   0  0  0  0  0  0  0  0  0  0  0  0
   12.0056   -0.6192   -0.2256 H   0  0  0  0  0  0  0  0  0  0  0  0
   11.0736    1.4434    0.8316 H   0  0  0  0  0  0  0  0  0  0  0  0
   11.6634    0.8495    2.4082 H   0  0  0  0  0  0  0  0  0  0  0  0
   13.3574    1.3526   -0.0876 H   0  0  0  0  0  0  0  0  0  0  0  0
   13.3433    2.3508    1.3802 H   0  0  0  0  0  0  0  0  0  0  0  0
   15.2866    0.7945    1.2831 H   0  0  0  0  0  0  0  0  0  0  0  0
   14.2494    0.5188    2.6967 H   0  0  0  0  0  0  0  0  0  0  0  0
   14.2163   -1.1127    0.1110 H   0  0  0  0  0  0  0  0  0  0  0  0
   14.8830   -1.6391    1.6811 H   0  0  0  0  0  0  0  0  0  0  0  0
   12.6121   -1.3073    2.7109 H   0  0  0  0  0  0  0  0  0  0  0  0
   12.7217   -3.1017    0.2149 H   0  0  0  0  0  0  0  0  0  0  0  0
   12.6323   -3.6079    1.9351 H   0  0  0  0  0  0  0  0  0  0  0  0
   10.3779   -3.3010    0.3212 H   0  0  0  0  0  0  0  0  0  0  0  0
    3.4056   -2.8234    2.0784 H   0  0  0  0  0  0  0  0  0  0  0  0
    2.3117   -4.0626    2.8798 H   0  0  0  0  0  0  0  0  0  0  0  0
    0.7236   -5.5759    3.9921 H   0  0  0  0  0  0  0  0  0  0  0  0
   -1.3108   -4.6758    5.0423 H   0  0  0  0  0  0  0  0  0  0  0  0
   -1.7693   -2.2595    4.9873 H   0  0  0  0  0  0  0  0  0  0  0  0
   -0.1882   -0.7276    3.8904 H   0  0  0  0  0  0  0  0  0  0  0  0
  1  6  2  0  0  0  0
  1  2  1  0  0  0  0
  1 36  1  0  0  0  0
  2  3  2  0  0  0  0
  2 37  1  0  0  0  0
  3  4  1  0  0  0  0
  3 38  1  0  0  0  0
  4  5  2  0  0  0  0
  4  7  1  0  0  0  0
  5  6  1  0  0  0  0
  5 39  1  0  0  0  0
  6 40  1  0  0  0  0
  7  8  1  0  0  0  0
  7 41  1  0  0  0  0
  7 42  1  0  0  0  0
  8  9  1  0  0  0  0
  8 27  1  0  0  0  0
  8 43  1  1  0  0  0
  9 10  2  0  0  0  0
  9 11  1  0  0  0  0
 11 12  1  0  0  0  0
 11 44  1  0  0  0  0
 11 45  1  0  0  0  0
 12 13  1  0  0  0  0
 12 46  1  0  0  0  0
 12 47  1  0  0  0  0
 13 14  2  0  0  0  0
 13 15  1  0  0  0  0
 15 23  1  0  0  0  0
 15 16  1  0  0  0  0
 16 21  1  0  0  0  0
 16 17  1  0  0  0  0
 16 48  1  6  0  0  0
 17 18  1  0  0  0  0
 17 49  1  0  0  0  0
 17 50  1  0  0  0  0
 18 19  1  0  0  0  0
 18 51  1  0  0  0  0
 18 52  1  0  0  0  0
 19 20  1  0  0  0  0
 19 53  1  0  0  0  0
 19 54  1  0  0  0  0
 20 21  1  0  0  0  0
 20 55  1  0  0  0  0
 20 56  1  0  0  0  0
 21 22  1  0  0  0  0
 21 57  1  1  0  0  0
 22 23  1  0  0  0  0
 22 58  1  0  0  0  0
 22 59  1  0  0  0  0
 23 24  1  0  0  0  0
 23 60  1  6  0  0  0
 24 25  2  0  0  0  0
 24 26  1  0  0  0  0
 27 28  1  0  0  0  0
 27 61  1  0  0  0  0
 28 29  2  0  0  0  0
 28 30  1  0  0  0  0
 30 35  2  0  0  0  0
 30 31  1  0  0  0  0
 31 32  2  0  0  0  0
 31 62  1  0  0  0  0
 32 33  1  0  0  0  0
 32 63  1  0  0  0  0
 33 34  2  0  0  0  0
 33 64  1  0  0  0  0
 34 35  1  0  0  0  0
 34 65  1  0  0  0  0
 35 66  1  0  0  0  0
M  END
$$$$
CHEMBL107700
 OpenBabel01252620473D

 45 46  0  0  1  0  0  0  0  0999 V2000
   -0.0187    1.5258    0.0104 C   0  0  0  0  0  0  0  0  0  0  0  0
    0.0021   -0.0041    0.0020 C   0  0  2  0  0  0  0  0  0  0  0  0
   -1.4117   -0.5257    0.0127 C   0  0  0  0  0  0  0  0  0  0  0  0
   -1.7902   -1.2332    0.9222 O   0  0  0  0  0  0  0  0  0  0  0  0
   -2.2556   -0.2060   -0.9884 N   0  0  0  0  0  0  0  0  0  0  0  0
   -1.9269    0.6355   -2.1534 C   0  0  0  0  0  0  0  0  0  0  0  0
   -2.9312    0.2031   -3.2508 C   0  0  0  0  0  0  0  0  0  0  0  0
   -4.2129   -0.0557   -2.4156 C   0  0  0  0  0  0  0  0  0  0  0  0
   -3.6544   -0.6439   -1.1027 C   0  0  2  0  0  0  0  0  0  0  0  0
   -4.4507   -0.1261    0.0673 C   0  0  0  0  0  0  0  0  0  0  0  0
   -4.1373    0.9243    0.6010 O   0  0  0  0  0  0  0  0  0  0  0  0
   -5.4085   -0.7577    0.4800 O   0  0  0  0  0  1  0  0  0  0  0  0
    0.7106   -0.4894    1.1889 N   0  0  0  0  0  0  0  0  0  0  0  0
    2.0538   -0.5998    1.1737 C   0  0  0  0  0  0  0  0  0  0  0  0
    2.6758   -0.2974    0.1774 O   0  0  0  0  0  0  0  0  0  0  0  0
    2.7826   -1.0990    2.3946 C   0  0  1  0  0  0  0  0  0  0  0  0
    2.2996   -2.5102    2.7355 C   0  0  0  0  0  0  0  0  0  0  0  0
    3.0396   -3.0170    3.9750 C   0  0  0  0  0  0  0  0  0  0  0  0
    4.5434   -3.0465    3.6946 C   0  0  0  0  0  0  0  0  0  0  0  0
    5.0264   -1.6354    3.3538 C   0  0  0  0  0  0  0  0  0  0  0  0
    4.2865   -1.1286    2.1142 C   0  0  2  0  0  0  0  0  0  0  0  0
    4.8592    0.5445    1.7101 S   0  0  0  0  0  0  0  0  0  0  0  0
    1.0039    1.9031    0.0027 H   0  0  0  0  0  0  0  0  0  0  0  0
   -0.5459    1.8868   -0.8726 H   0  0  0  0  0  0  0  0  0  0  0  0
   -0.5289    1.8773    0.9072 H   0  0  0  0  0  0  0  0  0  0  0  0
    0.5123   -0.3556   -0.8948 H   0  0  0  0  0  0  0  0  0  0  0  0
   -2.0613    1.6894   -1.9102 H   0  0  0  0  0  0  0  0  0  0  0  0
   -0.9040    0.4481   -2.4802 H   0  0  0  0  0  0  0  0  0  0  0  0
   -3.0903    1.0044   -3.9724 H   0  0  0  0  0  0  0  0  0  0  0  0
   -2.5983   -0.7079   -3.7481 H   0  0  0  0  0  0  0  0  0  0  0  0
   -4.7462    0.8763   -2.2287 H   0  0  0  0  0  0  0  0  0  0  0  0
   -4.8591   -0.7778   -2.9147 H   0  0  0  0  0  0  0  0  0  0  0  0
   -3.7008   -1.7325   -1.1327 H   0  0  0  0  0  0  0  0  0  0  0  0
    0.2131   -0.7312    1.9857 H   0  0  0  0  0  0  0  0  0  0  0  0
    2.5826   -0.4337    3.2345 H   0  0  0  0  0  0  0  0  0  0  0  0
    1.2282   -2.4891    2.9352 H   0  0  0  0  0  0  0  0  0  0  0  0
    2.4996   -3.1755    1.8955 H   0  0  0  0  0  0  0  0  0  0  0  0
    2.8396   -2.3517    4.8149 H   0  0  0  0  0  0  0  0  0  0  0  0
    2.6954   -4.0223    4.2178 H   0  0  0  0  0  0  0  0  0  0  0  0
    5.0706   -3.4076    4.5777 H   0  0  0  0  0  0  0  0  0  0  0  0
    4.7434   -3.7118    2.8547 H   0  0  0  0  0  0  0  0  0  0  0  0
    4.8264   -0.9701    4.1937 H   0  0  0  0  0  0  0  0  0  0  0  0
    6.0978   -1.6564    3.1541 H   0  0  0  0  0  0  0  0  0  0  0  0
    4.4865   -1.7939    1.2743 H   0  0  0  0  0  0  0  0  0  0  0  0
    6.1767    0.3924    1.4868 H   0  0  0  0  0  0  0  0  0  0  0  0
  1  2  1  0  0  0  0
  1 23  1  0  0  0  0
  1 24  1  0  0  0  0
  1 25  1  0  0  0  0
  2  3  1  0  0  0  0
  2 13  1  0  0  0  0
  2 26  1  6  0  0  0
  3  4  2  0  0  0  0
  3  5  1  0  0  0  0
  5  9  1  0  0  0  0
  5  6  1  0  0  0  0
  6  7  1  0  0  0  0
  6 27  1  0  0  0  0
  6 28  1  0  0  0  0
  7  8  1  0  0  0  0
  7 29  1  0  0  0  0
  7 30  1  0  0  0  0
  8  9  1  0  0  0  0
  8 31  1  0  0  0  0
  8 32  1  0  0  0  0
  9 10  1  0  0  0  0
  9 33  1  6  0  0  0
 10 11  2  0  0  0  0
 10 12  1  0  0  0  0
 13 14  1  0  0  0  0
 13 34  1  0  0  0  0
 14 15  2  0  0  0  0
 14 16  1  0  0  0  0
 16 21  1  0  0  0  0
 16 17  1  0  0  0  0
 16 35  1  1  0  0  0
 17 18  1  0  0  0  0
 17 36  1  0  0  0  0
 17 37  1  0  0  0  0
 18 19  1  0  0  0  0
 18 38  1  0  0  0  0
 18 39  1  0  0  0  0
 19 20  1  0  0  0  0
 19 40  1  0  0  0  0
 19 41  1  0  0  0  0
 20 21  1  0  0  0  0
 20 42  1  0  0  0  0
 20 43  1  0  0  0  0
 21 22  1  0  0  0  0
 21 44  1  6  0  0  0
 22 45  1  0  0  0  0
M  END
$$$$
CHEMBL111578
 OpenBabel01252620473D

 44 46  0  0  1  0  0  0  0  0999 V2000
    0.0330    1.0899    1.7599 C   0  0  0  0  0  0  0  0  0  0  0  0
    1.2103    1.8164    1.7777 C   0  0  0  0  0  0  0  0  0  0  0  0
    2.4116    1.1958    1.5037 C   0  0  0  0  0  0  0  0  0  0  0  0
    2.4375   -0.1681    1.2086 C   0  0  0  0  0  0  0  0  0  0  0  0
    1.2463   -0.8953    1.1928 C   0  0  0  0  0  0  0  0  0  0  0  0
    0.0517   -0.2624    1.4681 C   0  0  0  0  0  0  0  0  0  0  0  0
    3.7211   -0.8396    0.9136 C   0  0  0  0  0  0  0  0  0  0  0  0
    4.7574   -0.2034    0.9276 O   0  0  0  0  0  0  0  0  0  0  0  0
    3.7495   -2.5616    0.5415 S   0  0  0  0  0  0  0  0  0  0  0  0
    5.5048   -2.9205    0.2578 C   0  0  1  0  0  0  0  0  0  0  0  0
    6.2927   -2.7803    1.5767 C   0  0  0  0  0  0  0  0  0  0  0  0
    7.3478   -3.9124    1.5109 C   0  0  0  0  0  0  0  0  0  0  0  0
    6.5633   -5.0728    0.8499 C   0  0  0  0  0  0  0  0  0  0  0  0
    5.6769   -4.3781   -0.2043 C   0  0  1  0  0  0  0  0  0  0  0  0
    4.3340   -5.0580   -0.2786 C   0  0  0  0  0  0  0  0  0  0  0  0
    3.8253   -5.5072    0.7265 O   0  0  0  0  0  0  0  0  0  0  0  0
    3.6984   -5.1668   -1.4621 N   0  0  0  0  0  0  0  0  0  0  0  0
    4.2025   -4.6736   -2.7567 C   0  0  0  0  0  0  0  0  0  0  0  0
    3.4852   -5.5435   -3.8190 C   0  0  0  0  0  0  0  0  0  0  0  0
    2.0789   -5.7121   -3.1855 C   0  0  0  0  0  0  0  0  0  0  0  0
    2.3903   -5.8027   -1.6768 C   0  0  2  0  0  0  0  0  0  0  0  0
    1.3306   -5.0725   -0.8928 C   0  0  0  0  0  0  0  0  0  0  0  0
    1.4479   -3.8787   -0.6743 O   0  0  0  0  0  0  0  0  0  0  0  0
    0.3559   -5.6754   -0.4769 O   0  0  0  0  0  1  0  0  0  0  0  0
   -0.9043    1.5796    1.9792 H   0  0  0  0  0  0  0  0  0  0  0  0
    1.1889    2.8718    2.0062 H   0  0  0  0  0  0  0  0  0  0  0  0
    3.3298    1.7642    1.5172 H   0  0  0  0  0  0  0  0  0  0  0  0
    1.2595   -1.9509    0.9649 H   0  0  0  0  0  0  0  0  0  0  0  0
   -0.8708   -0.8239    1.4562 H   0  0  0  0  0  0  0  0  0  0  0  0
    5.9080   -2.2407   -0.4929 H   0  0  0  0  0  0  0  0  0  0  0  0
    6.7804   -1.8069    1.6281 H   0  0  0  0  0  0  0  0  0  0  0  0
    5.6328   -2.9232    2.4323 H   0  0  0  0  0  0  0  0  0  0  0  0
    8.1942   -3.6160    0.8913 H   0  0  0  0  0  0  0  0  0  0  0  0
    7.6788   -4.1905    2.5115 H   0  0  0  0  0  0  0  0  0  0  0  0
    7.2484   -5.7724    0.3711 H   0  0  0  0  0  0  0  0  0  0  0  0
    5.9471   -5.5859    1.5882 H   0  0  0  0  0  0  0  0  0  0  0  0
    6.1643   -4.4058   -1.1788 H   0  0  0  0  0  0  0  0  0  0  0  0
    3.9439   -3.6230   -2.8891 H   0  0  0  0  0  0  0  0  0  0  0  0
    5.2820   -4.8104   -2.8204 H   0  0  0  0  0  0  0  0  0  0  0  0
    3.4235   -5.0219   -4.7741 H   0  0  0  0  0  0  0  0  0  0  0  0
    3.9803   -6.5077   -3.9334 H   0  0  0  0  0  0  0  0  0  0  0  0
    1.4520   -4.8472   -3.4024 H   0  0  0  0  0  0  0  0  0  0  0  0
    1.6060   -6.6299   -3.5351 H   0  0  0  0  0  0  0  0  0  0  0  0
    2.4303   -6.8469   -1.3667 H   0  0  0  0  0  0  0  0  0  0  0  0
  1  6  2  0  0  0  0
  1  2  1  0  0  0  0
  1 25  1  0  0  0  0
  2  3  2  0  0  0  0
  2 26  1  0  0  0  0
  3  4  1  0  0  0  0
  3 27  1  0  0  0  0
  4  5  2  0  0  0  0
  4  7  1  0  0  0  0
  5  6  1  0  0  0  0
  5 28  1  0  0  0  0
  6 29  1  0  0  0  0
  7  8  2  0  0  0  0
  7  9  1  0  0  0  0
  9 10  1  0  0  0  0
 10 14  1  0  0  0  0
 10 11  1  0  0  0  0
 10 30  1  6  0  0  0
 11 12  1  0  0  0  0
 11 31  1  0  0  0  0
 11 32  1  0  0  0  0
 12 13  1  0  0  0  0
 12 33  1  0  0  0  0
 12 34  1  0  0  0  0
 13 14  1  0  0  0  0
 13 35  1  0  0  0  0
 13 36  1  0  0  0  0
 14 15  1  0  0  0  0
 14 37  1  6  0  0  0
 15 16  2  0  0  0  0
 15 17  1  0  0  0  0
 17 21  1  0  0  0  0
 17 18  1  0  0  0  0
 18 19  1  0  0  0  0
 18 38  1  0  0  0  0
 18 39  1  0  0  0  0
 19 20  1  0  0  0  0
 19 40  1  0  0  0  0
 19 41  1  0  0  0  0
 20 21  1  0  0  0  0
 20 42  1  0  0  0  0
 20 43  1  0  0  0  0
 21 22  1  0  0  0  0
 21 44  1  1  0  0  0
 22 23  2  0  0  0  0
 22 24  1  0  0  0  0
M  END
$$$$
CHEMBL24819
 OpenBabel01252620473D

 35 37  0  0  1  0  0  0  0  0999 V2000
    0.0425    1.5191   -0.0441 C   0  0  0  0  0  0  0  0  0  0  0  0
   -0.0012   -0.0096    0.0020 C   0  0  1  0  0  0  0  0  0  0  0  0
    0.5528   -0.5753   -1.3072 C   0  0  0  0  0  0  0  0  0  0  0  0
   -0.5378   -0.1052   -2.6784 S   0  0  0  0  0  0  0  0  0  0  0  0
    0.8348   -0.5015    1.1553 C   0  0  0  0  0  0  0  0  0  0  0  0
    1.8667   -1.1027    0.9434 O   0  0  0  0  0  0  0  0  0  0  0  0
    0.4359   -0.2734    2.4223 N   0  0  0  0  0  0  0  0  0  0  0  0
   -0.7799    0.3182    2.7873 C   0  0  0  0  0  0  0  0  0  0  0  0
   -1.8127    0.7875    1.9738 C   0  0  0  0  0  0  0  0  0  0  0  0
   -2.9460    1.3457    2.5349 C   0  0  0  0  0  0  0  0  0  0  0  0
   -3.0613    1.4420    3.9200 C   0  0  0  0  0  0  0  0  0  0  0  0
   -2.0378    0.9764    4.7274 C   0  0  0  0  0  0  0  0  0  0  0  0
   -0.9049    0.4187    4.1632 C   0  0  0  0  0  0  0  0  0  0  0  0
    0.3387   -0.1565    4.8033 C   0  0  0  0  0  0  0  0  0  0  0  0
    1.2077   -0.6137    3.6205 C   0  0  1  0  0  0  0  0  0  0  0  0
    1.4436   -2.1007    3.6854 C   0  0  0  0  0  0  0  0  0  0  0  0
    2.2186   -2.5597    4.5072 O   0  0  0  0  0  0  0  0  0  0  0  0
    0.8595   -2.8448    2.9162 O   0  0  0  0  0  1  0  0  0  0  0  0
   -4.2598    2.0242    4.2194 O   0  0  0  0  0  0  0  0  0  0  0  0
   -4.6959    2.6538    3.0001 C   0  0  0  0  0  0  0  0  0  0  0  0
   -4.0733    1.8674    1.9673 O   0  0  0  0  0  0  0  0  0  0  0  0
    1.0478    1.8460   -0.3101 H   0  0  0  0  0  0  0  0  0  0  0  0
   -0.6662    1.8805   -0.7892 H   0  0  0  0  0  0  0  0  0  0  0  0
   -0.2228    1.9198    0.9342 H   0  0  0  0  0  0  0  0  0  0  0  0
   -1.0316   -0.3398    0.1333 H   0  0  0  0  0  0  0  0  0  0  0  0
    1.5509   -0.1742   -1.4828 H   0  0  0  0  0  0  0  0  0  0  0  0
    0.6045   -1.6620   -1.2403 H   0  0  0  0  0  0  0  0  0  0  0  0
    0.0451   -0.6522   -3.7601 H   0  0  0  0  0  0  0  0  0  0  0  0
   -1.7256    0.7143    0.8999 H   0  0  0  0  0  0  0  0  0  0  0  0
   -2.1239    1.0497    5.8015 H   0  0  0  0  0  0  0  0  0  0  0  0
    0.8543    0.6070    5.3857 H   0  0  0  0  0  0  0  0  0  0  0  0
    0.0826   -1.0082    5.4335 H   0  0  0  0  0  0  0  0  0  0  0  0
    2.1575   -0.0790    3.6229 H   0  0  0  0  0  0  0  0  0  0  0  0
   -5.7815    2.6095    2.9133 H   0  0  0  0  0  0  0  0  0  0  0  0
   -4.3491    3.6863    2.9570 H   0  0  0  0  0  0  0  0  0  0  0  0
  1  2  1  0  0  0  0
  1 22  1  0  0  0  0
  1 23  1  0  0  0  0
  1 24  1  0  0  0  0
  2  3  1  0  0  0  0
  2  5  1  0  0  0  0
  2 25  1  1  0  0  0
  3  4  1  0  0  0  0
  3 26  1  0  0  0  0
  3 27  1  0  0  0  0
  4 28  1  0  0  0  0
  5  6  2  0  0  0  0
  5  7  1  0  0  0  0
  7 15  1  0  0  0  0
  7  8  1  0  0  0  0
  8 13  2  0  0  0  0
  8  9  1  0  0  0  0
  9 10  2  0  0  0  0
  9 29  1  0  0  0  0
 10 21  1  0  0  0  0
 10 11  1  0  0  0  0
 11 12  2  0  0  0  0
 11 19  1  0  0  0  0
 12 13  1  0  0  0  0
 12 30  1  0  0  0  0
 13 14  1  0  0  0  0
 14 15  1  0  0  0  0
 14 31  1  0  0  0  0
 14 32  1  0  0  0  0
 15 16  1  0  0  0  0
 15 33  1  1  0  0  0
 16 17  2  0  0  0  0
 16 18  1  0  0  0  0
 19 20  1  0  0  0  0
 20 21  1  0  0  0  0
 20 34  1  0  0  0  0
 20 35  1  0  0  0  0
M  END
$$$$
CHEMBL58340
 OpenBabel01252620473D

 84 87  0  0  1  0  0  0  0  0999 V2000
   -8.8283   -1.7750    1.9479 C   0  0  0  0  0  0  0  0  0  0  0  0
   -8.2218   -2.9961    1.2537 C   0  0  0  0  0  0  0  0  0  0  0  0
   -8.2316   -4.1081    2.1511 O   0  0  0  0  0  0  0  0  0  0  0  0
   -7.7300   -5.2656    1.6926 C   0  0  0  0  0  0  0  0  0  0  0  0
   -7.2969   -5.3325    0.5667 O   0  0  0  0  0  0  0  0  0  0  0  0
   -7.7071   -6.4818    2.5823 C   0  0  1  0  0  0  0  0  0  0  0  0
   -8.9384   -7.3445    2.2987 C   0  0  0  0  0  0  0  0  0  0  0  0
   -8.9811   -8.5126    3.2859 C   0  0  0  0  0  0  0  0  0  0  0  0
  -10.1939   -9.3623    3.0066 C   0  0  0  0  0  0  0  0  0  0  0  0
  -11.3933   -9.0826    3.6344 C   0  0  0  0  0  0  0  0  0  0  0  0
  -12.5058   -9.8620    3.3782 C   0  0  0  0  0  0  0  0  0  0  0  0
  -12.4191  -10.9209    2.4938 C   0  0  0  0  0  0  0  0  0  0  0  0
  -11.2200  -11.2000    1.8652 C   0  0  0  0  0  0  0  0  0  0  0  0
  -10.1086  -10.4180    2.1182 C   0  0  0  0  0  0  0  0  0  0  0  0
   -6.4910   -7.2612    2.3148 N   0  3  0  0  0  0  0  0  0  0  0  0
   -5.3431   -6.6168    2.9668 C   0  0  2  0  0  0  0  0  0  0  0  0
   -5.1063   -5.2415    2.3397 C   0  0  0  0  0  0  0  0  0  0  0  0
   -4.1155   -7.4713    2.7818 C   0  0  0  0  0  0  0  0  0  0  0  0
   -4.0064   -8.1710    1.7973 O   0  0  0  0  0  0  0  0  0  0  0  0
   -3.1389   -7.4578    3.7106 N   0  0  0  0  0  0  0  0  0  0  0  0
   -3.2971   -6.7286    4.9733 C   0  0  0  0  0  0  0  0  0  0  0  0
   -2.0360   -5.9591    5.2774 C   0  0  0  0  0  0  0  0  0  0  0  0
   -2.0828   -5.0208    6.3004 C   0  0  0  0  0  0  0  0  0  0  0  0
   -0.9583   -4.2895    6.6350 C   0  0  0  0  0  0  0  0  0  0  0  0
    0.2294   -4.4993    5.9399 C   0  0  0  0  0  0  0  0  0  0  0  0
    0.2698   -5.4317    4.9205 C   0  0  0  0  0  0  0  0  0  0  0  0
   -0.8647   -6.1605    4.5821 C   0  0  0  0  0  0  0  0  0  0  0  0
   -0.7495   -7.1379    3.4417 C   0  0  0  0  0  0  0  0  0  0  0  0
   -1.8729   -8.1796    3.5009 C   0  0  2  0  0  0  0  0  0  0  0  0
   -1.9314   -8.9456    2.2045 C   0  0  0  0  0  0  0  0  0  0  0  0
   -1.9037   -8.3540    1.1513 O   0  0  0  0  0  0  0  0  0  0  0  0
   -2.0143  -10.2853    2.2197 O   0  0  0  0  0  0  0  0  0  0  0  0
   -2.0661  -10.9465    0.9539 C   0  0  0  0  0  0  0  0  0  0  0  0
   -2.1565  -12.4354    1.1683 C   0  0  0  0  0  0  0  0  0  0  0  0
   -1.0031  -13.1915    1.2621 C   0  0  0  0  0  0  0  0  0  0  0  0
   -1.0860  -14.5573    1.4587 C   0  0  0  0  0  0  0  0  0  0  0  0
   -2.3224  -15.1669    1.5620 C   0  0  0  0  0  0  0  0  0  0  0  0
   -3.4758  -14.4107    1.4691 C   0  0  0  0  0  0  0  0  0  0  0  0
   -3.3928  -13.0443    1.2768 C   0  0  0  0  0  0  0  0  0  0  0  0
    1.3444   -3.7908    6.2625 O   0  0  0  0  0  0  0  0  0  0  0  0
    2.5260   -4.0603    5.5055 C   0  0  0  0  0  0  0  0  0  0  0  0
   -1.0122   -3.3708    7.6362 O   0  0  0  0  0  0  0  0  0  0  0  0
   -2.2658   -3.2110    8.3033 C   0  0  0  0  0  0  0  0  0  0  0  0
   -8.8208   -0.9268    1.2634 H   0  0  0  0  0  0  0  0  0  0  0  0
   -9.8546   -1.9962    2.2411 H   0  0  0  0  0  0  0  0  0  0  0  0
   -8.2417   -1.5321    2.8339 H   0  0  0  0  0  0  0  0  0  0  0  0
   -8.8084   -3.2390    0.3677 H   0  0  0  0  0  0  0  0  0  0  0  0
   -7.1955   -2.7749    0.9605 H   0  0  0  0  0  0  0  0  0  0  0  0
   -7.7155   -6.1685    3.6263 H   0  0  0  0  0  0  0  0  0  0  0  0
   -9.8388   -6.7406    2.4112 H   0  0  0  0  0  0  0  0  0  0  0  0
   -8.8848   -7.7307    1.2808 H   0  0  0  0  0  0  0  0  0  0  0  0
   -8.0806   -9.1165    3.1734 H   0  0  0  0  0  0  0  0  0  0  0  0
   -9.0346   -8.1263    4.3038 H   0  0  0  0  0  0  0  0  0  0  0  0
  -11.4610   -8.2553    4.3254 H   0  0  0  0  0  0  0  0  0  0  0  0
  -13.4427   -9.6439    3.8693 H   0  0  0  0  0  0  0  0  0  0  0  0
  -13.2881  -11.5303    2.2942 H   0  0  0  0  0  0  0  0  0  0  0  0
  -11.1522  -12.0275    1.1745 H   0  0  0  0  0  0  0  0  0  0  0  0
   -9.1727  -10.6337    1.6243 H   0  0  0  0  0  0  0  0  0  0  0  0
   -6.6035   -8.1956    2.6787 H   0  0  0  0  0  0  0  0  0  0  0  0
   -5.5478   -6.5006    4.0311 H   0  0  0  0  0  0  0  0  0  0  0  0
   -5.8484   -4.5377    2.7168 H   0  0  0  0  0  0  0  0  0  0  0  0
   -4.1077   -4.8906    2.5998 H   0  0  0  0  0  0  0  0  0  0  0  0
   -5.1943   -5.3163    1.2559 H   0  0  0  0  0  0  0  0  0  0  0  0
   -4.1338   -6.0350    4.8892 H   0  0  0  0  0  0  0  0  0  0  0  0
   -3.4933   -7.4364    5.7787 H   0  0  0  0  0  0  0  0  0  0  0  0
   -3.0054   -4.8609    6.8386 H   0  0  0  0  0  0  0  0  0  0  0  0
    1.1912   -5.5951    4.3813 H   0  0  0  0  0  0  0  0  0  0  0  0
   -0.8095   -6.5961    2.4978 H   0  0  0  0  0  0  0  0  0  0  0  0
    0.2126   -7.6467    3.5015 H   0  0  0  0  0  0  0  0  0  0  0  0
   -1.6988   -8.8669    4.3287 H   0  0  0  0  0  0  0  0  0  0  0  0
   -2.9413  -10.6052    0.4012 H   0  0  0  0  0  0  0  0  0  0  0  0
   -1.1648  -10.7153    0.3861 H   0  0  0  0  0  0  0  0  0  0  0  0
   -0.0371  -12.7153    1.1814 H   0  0  0  0  0  0  0  0  0  0  0  0
   -0.1849  -15.1482    1.5313 H   0  0  0  0  0  0  0  0  0  0  0  0
   -2.3872  -16.2341    1.7149 H   0  0  0  0  0  0  0  0  0  0  0  0
   -4.4418  -14.8870    1.5495 H   0  0  0  0  0  0  0  0  0  0  0  0
   -4.2939  -12.4529    1.2079 H   0  0  0  0  0  0  0  0  0  0  0  0
    3.3392   -3.4292    5.8641 H   0  0  0  0  0  0  0  0  0  0  0  0
    2.8011   -5.1086    5.6223 H   0  0  0  0  0  0  0  0  0  0  0  0
    2.3392   -3.8489    4.4527 H   0  0  0  0  0  0  0  0  0  0  0  0
   -3.0241   -2.9040    7.5830 H   0  0  0  0  0  0  0  0  0  0  0  0
   -2.5586   -4.1574    8.7580 H   0  0  0  0  0  0  0  0  0  0  0  0
   -2.1709   -2.4498    9.0777 H   0  0  0  0  0  0  0  0  0  0  0  0
   -6.3316   -7.3049    1.3195 H   0  0  0  0  0  0  0  0  0  0  0  0
  1  2  1  0  0  0  0
  1 44  1  0  0  0  0
  1 45  1  0  0  0  0
  1 46  1  0  0  0  0
  2  3  1  0  0  0  0
  2 47  1  0  0  0  0
  2 48  1  0  0  0  0
  3  4  1  0  0  0  0
  4  5  2  0  0  0  0
  4  6  1  0  0  0  0
  6  7  1  0  0  0  0
  6 15  1  0  0  0  0
  6 49  1  1  0  0  0
  7  8  1  0  0  0  0
  7 50  1  0  0  0  0
  7 51  1  0  0  0  0
  8  9  1  0  0  0  0
  8 52  1  0  0  0  0
  8 53  1  0  0  0  0
  9 14  2  0  0  0  0
  9 10  1  0  0  0  0
 10 11  2  0  0  0  0
 10 54  1  0  0  0  0
 11 12  1  0  0  0  0
 11 55  1  0  0  0  0
 12 13  2  0  0  0  0
 12 56  1  0  0  0  0
 13 14  1  0  0  0  0
 13 57  1  0  0  0  0
 14 58  1  0  0  0  0
 15 16  1  0  0  0  0
 15 59  1  0  0  0  0
 15 84  1  0  0  0  0
 16 17  1  0  0  0  0
 16 18  1  0  0  0  0
 16 60  1  1  0  0  0
 17 61  1  0  0  0  0
 17 62  1  0  0  0  0
 17 63  1  0  0  0  0
 18 19  2  0  0  0  0
 18 20  1  0  0  0  0
 20 29  1  0  0  0  0
 20 21  1  0  0  0  0
 21 22  1  0  0  0  0
 21 64  1  0  0  0  0
 21 65  1  0  0  0  0
 22 27  2  0  0  0  0
 22 23  1  0  0  0  0
 23 24  2  0  0  0  0
 23 66  1  0  0  0  0
 24 25  1  0  0  0  0
 24 42  1  0  0  0  0
 25 26  2  0  0  0  0
 25 40  1  0  0  0  0
 26 27  1  0  0  0  0
 26 67  1  0  0  0  0
 27 28  1  0  0  0  0
 28 29  1  0  0  0  0
 28 68  1  0  0  0  0
 28 69  1  0  0  0  0
 29 30  1  0  0  0  0
 29 70  1  1  0  0  0
 30 31  2  0  0  0  0
 30 32  1  0  0  0  0
 32 33  1  0  0  0  0
 33 34  1  0  0  0  0
 33 71  1  0  0  0  0
 33 72  1  0  0  0  0
 34 39  2  0  0  0  0
 34 35  1  0  0  0  0
 35 36  2  0  0  0  0
 35 73  1  0  0  0  0
 36 37  1  0  0  0  0
 36 74  1  0  0  0  0
 37 38  2  0  0  0  0
 37 75  1  0  0  0  0
 38 39  1  0  0  0  0
 38 76  1  0  0  0  0
 39 77  1  0  0  0  0
 40 41  1  0  0  0  0
 41 78  1  0  0  0  0
 41 79  1  0  0  0  0
 41 80  1  0  0  0  0
 42 43  1  0  0  0  0
 43 81  1  0  0  0  0
 43 82  1  0  0  0  0
 43 83  1  0  0  0  0
M  CHG  1  15   1
M  END
$$$$
CHEMBL50625
 OpenBabel01252620473D

 59 61  0  0  1  0  0  0  0  0999 V2000
    0.6448    0.8497    0.4547 C   0  0  0  0  0  0  0  0  0  0  0  0
    0.8109   -0.4401   -0.3513 C   0  0  1  0  0  0  0  0  0  0  0  0
    1.2336   -0.2061   -1.3283 H   0  0  0  0  0  0  0  0  0  0  0  0
    1.7343   -1.3768    0.3844 C   0  0  0  0  0  0  0  0  0  0  0  0
    1.3396   -2.4704    0.7296 O   0  0  0  0  0  0  0  0  0  0  0  0
    2.9986   -0.9992    0.6586 N   0  0  0  0  0  0  0  0  0  0  0  0
    3.6040    0.2976    0.3046 C   0  0  0  0  0  0  0  0  0  0  0  0
    5.1277    0.0230    0.2529 C   0  0  2  0  0  0  0  0  0  0  0  0
    5.4113   -0.4288   -0.6976 H   0  0  0  0  0  0  0  0  0  0  0  0
    5.3027   -0.9830    1.4211 C   0  0  0  0  0  0  0  0  0  0  0  0
    4.0007   -1.8098    1.3660 C   0  0  1  0  0  0  0  0  0  0  0  0
    4.1763   -2.7386    0.8233 H   0  0  0  0  0  0  0  0  0  0  0  0
    3.5224   -2.1115    2.7629 C   0  0  0  0  0  0  0  0  0  0  0  0
    4.1211   -2.9208    3.4507 O   0  0  0  0  0  0  0  0  0  0  0  0
    2.5369   -1.5462    3.2052 O   0  0  0  0  0  1  0  0  0  0  0  0
    6.0726    1.5418    0.5545 S   0  0  0  0  0  0  0  0  0  0  0  0
    7.7281    1.1032    0.1402 C   0  0  0  0  0  0  0  0  0  0  0  0
    7.9997   -0.1379   -0.4230 C   0  0  0  0  0  0  0  0  0  0  0  0
    9.2983   -0.4783   -0.7463 C   0  0  0  0  0  0  0  0  0  0  0  0
   10.3280    0.4143   -0.5103 C   0  0  0  0  0  0  0  0  0  0  0  0
   10.0616    1.6501    0.0504 C   0  0  0  0  0  0  0  0  0  0  0  0
    8.7647    1.9998    0.3706 C   0  0  0  0  0  0  0  0  0  0  0  0
   -0.4959   -1.0791   -0.5249 N   0  0  0  0  0  0  0  0  0  0  0  0
   -1.3010   -0.7024   -1.5381 C   0  0  0  0  0  0  0  0  0  0  0  0
   -0.9435    0.1656   -2.3060 O   0  0  0  0  0  0  0  0  0  0  0  0
   -2.6452   -1.3597   -1.7167 C   0  0  2  0  0  0  0  0  0  0  0  0
   -2.6447   -2.3292   -1.2186 H   0  0  0  0  0  0  0  0  0  0  0  0
   -2.9242   -1.5529   -3.2086 C   0  0  0  0  0  0  0  0  0  0  0  0
   -1.9365   -2.5367   -3.7810 C   0  0  0  0  0  0  0  0  0  0  0  0
   -0.7158   -2.0940   -4.2550 C   0  0  0  0  0  0  0  0  0  0  0  0
    0.1903   -2.9963   -4.7801 C   0  0  0  0  0  0  0  0  0  0  0  0
   -0.1243   -4.3415   -4.8308 C   0  0  0  0  0  0  0  0  0  0  0  0
   -1.3446   -4.7843   -4.3559 C   0  0  0  0  0  0  0  0  0  0  0  0
   -2.2489   -3.8825   -3.8269 C   0  0  0  0  0  0  0  0  0  0  0  0
   -3.7318   -0.4729   -1.1053 C   0  0  0  0  0  0  0  0  0  0  0  0
   -5.3199   -1.3488   -1.1439 S   0  0  0  0  0  0  0  0  0  0  0  0
    1.6171    1.3251    0.5839 H   0  0  0  0  0  0  0  0  0  0  0  0
   -0.0231    1.5272   -0.0773 H   0  0  0  0  0  0  0  0  0  0  0  0
    0.2221    0.6157    1.4318 H   0  0  0  0  0  0  0  0  0  0  0  0
    3.2453    0.6304   -0.6694 H   0  0  0  0  0  0  0  0  0  0  0  0
    3.3784    1.0425    1.0677 H   0  0  0  0  0  0  0  0  0  0  0  0
    6.1729   -1.6182    1.2559 H   0  0  0  0  0  0  0  0  0  0  0  0
    5.3820   -0.4583    2.3733 H   0  0  0  0  0  0  0  0  0  0  0  0
    7.1961   -0.8356   -0.6073 H   0  0  0  0  0  0  0  0  0  0  0  0
    9.5101   -1.4427   -1.1837 H   0  0  0  0  0  0  0  0  0  0  0  0
   11.3427    0.1454   -0.7642 H   0  0  0  0  0  0  0  0  0  0  0  0
   10.8683    2.3445    0.2336 H   0  0  0  0  0  0  0  0  0  0  0  0
    8.5567    2.9670    0.8037 H   0  0  0  0  0  0  0  0  0  0  0  0
   -0.7818   -1.7734    0.0893 H   0  0  0  0  0  0  0  0  0  0  0  0
   -3.9364   -1.9347   -3.3425 H   0  0  0  0  0  0  0  0  0  0  0  0
   -2.8252   -0.5973   -3.7235 H   0  0  0  0  0  0  0  0  0  0  0  0
   -0.4700   -1.0430   -4.2155 H   0  0  0  0  0  0  0  0  0  0  0  0
    1.1437   -2.6504   -5.1511 H   0  0  0  0  0  0  0  0  0  0  0  0
    0.5833   -5.0464   -5.2417 H   0  0  0  0  0  0  0  0  0  0  0  0
   -1.5905   -5.8352   -4.3958 H   0  0  0  0  0  0  0  0  0  0  0  0
   -3.2009   -4.2289   -3.4525 H   0  0  0  0  0  0  0  0  0  0  0  0
   -3.4713   -0.2382   -0.0733 H   0  0  0  0  0  0  0  0  0  0  0  0
   -3.8123    0.4507   -1.6787 H   0  0  0  0  0  0  0  0  0  0  0  0
   -6.1839   -0.4808   -0.5879 H   0  0  0  0  0  0  0  0  0  0  0  0
  1  2  1  0  0  0  0
  1 37  1  0  0  0  0
  1 38  1  0  0  0  0
  1 39  1  0  0  0  0
  2  3  1  6  0  0  0
  2  4  1  0  0  0  0
  2 23  1  0  0  0  0
  4  5  2  0  0  0  0
  4  6  1  0  0  0  0
  6 11  1  0  0  0  0
  6  7  1  0  0  0  0
  7  8  1  0  0  0  0
  7 40  1  0  0  0  0
  7 41  1  0  0  0  0
  8  9  1  6  0  0  0
  8 10  1  0  0  0  0
  8 16  1  0  0  0  0
 10 11  1  0  0  0  0
 10 42  1  0  0  0  0
 10 43  1  0  0  0  0
 11 12  1  6  0  0  0
 11 13  1  0  0  0  0
 13 14  2  0  0  0  0
 13 15  1  0  0  0  0
 16 17  1  0  0  0  0
 17 22  2  0  0  0  0
 17 18  1  0  0  0  0
 18 19  2  0  0  0  0
 18 44  1  0  0  0  0
 19 20  1  0  0  0  0
 19 45  1  0  0  0  0
 20 21  2  0  0  0  0
 20 46  1  0  0  0  0
 21 22  1  0  0  0  0
 21 47  1  0  0  0  0
 22 48  1  0  0  0  0
 23 24  1  0  0  0  0
 23 49  1  0  0  0  0
 24 25  2  0  0  0  0
 24 26  1  0  0  0  0
 26 27  1  1  0  0  0
 26 28  1  0  0  0  0
 26 35  1  0  0  0  0
 28 29  1  0  0  0  0
 28 50  1  0  0  0  0
 28 51  1  0  0  0  0
 29 34  2  0  0  0  0
 29 30  1  0  0  0  0
 30 31  2  0  0  0  0
 30 52  1  0  0  0  0
 31 32  1  0  0  0  0
 31 53  1  0  0  0  0
 32 33  2  0  0  0  0
 32 54  1  0  0  0  0
 33 34  1  0  0  0  0
 33 55  1  0  0  0  0
 34 56  1  0  0  0  0
 35 36  1  0  0  0  0
 35 57  1  0  0  0  0
 35 58  1  0  0  0  0
 36 59  1  0  0  0  0
M  END
$$$$
CHEMBL368598
 OpenBabel01252620473D

 33 35  0  0  1  0  0  0  0  0999 V2000
   -0.0188    1.5330    0.0105 C   0  0  0  0  0  0  0  0  0  0  0  0
    1.3930    2.1115    0.0001 C   0  0  0  0  0  0  0  0  0  0  0  0
    2.2141    1.5671   -1.1807 C   0  0  0  0  0  0  0  0  0  0  0  0
    2.2248    0.0568   -1.0636 C   0  0  1  0  0  0  0  0  0  0  0  0
    0.7639   -0.4367   -1.2388 C   0  0  2  0  0  0  0  0  0  0  0  0
    0.0021   -0.0041    0.0020 C   0  0  0  0  0  0  0  0  0  0  0  0
    1.0069   -1.9476   -1.3699 C   0  0  0  0  0  0  0  0  0  0  0  0
    2.2901   -1.9785   -2.2480 C   0  0  2  0  0  0  0  0  0  0  0  0
    2.9763   -0.6833   -2.0783 N   0  0  0  0  0  0  0  0  0  0  0  0
    4.0671   -0.2345   -2.6969 C   0  0  0  0  0  0  0  0  0  0  0  0
    4.3659    0.9171   -2.4613 O   0  0  0  0  0  0  0  0  0  0  0  0
    4.9655   -0.9491   -3.6327 C   0  0  0  0  0  0  0  0  0  0  0  0
    4.5647   -2.3853   -3.9069 C   0  0  0  0  0  0  0  0  0  0  0  0
    3.0129   -2.4391   -4.8434 S   0  0  0  0  0  0  0  0  0  0  0  0
    1.8622   -2.1428   -3.6841 C   0  0  0  0  0  0  0  0  0  0  0  0
    0.6908   -2.0598   -3.9890 O   0  0  0  0  0  0  0  0  0  0  0  0
   -0.5382    1.8773    0.9048 H   0  0  0  0  0  0  0  0  0  0  0  0
   -0.5552    1.8868   -0.8700 H   0  0  0  0  0  0  0  0  0  0  0  0
    1.3329    3.1970   -0.0778 H   0  0  0  0  0  0  0  0  0  0  0  0
    1.8926    1.8493    0.9327 H   0  0  0  0  0  0  0  0  0  0  0  0
    1.7510    1.8629   -2.1220 H   0  0  0  0  0  0  0  0  0  0  0  0
    3.2334    1.9501   -1.1314 H   0  0  0  0  0  0  0  0  0  0  0  0
    2.5734   -0.2293   -0.0713 H   0  0  0  0  0  0  0  0  0  0  0  0
    0.3114   -0.0219   -2.1395 H   0  0  0  0  0  0  0  0  0  0  0  0
    0.5067   -0.3733    0.8949 H   0  0  0  0  0  0  0  0  0  0  0  0
   -1.0171   -0.3888   -0.0353 H   0  0  0  0  0  0  0  0  0  0  0  0
    1.1888   -2.4006   -0.3954 H   0  0  0  0  0  0  0  0  0  0  0  0
    0.1743   -2.4352   -1.8769 H   0  0  0  0  0  0  0  0  0  0  0  0
    2.9355   -2.8040   -1.9479 H   0  0  0  0  0  0  0  0  0  0  0  0
    4.9819   -0.4075   -4.5785 H   0  0  0  0  0  0  0  0  0  0  0  0
    5.9732   -0.9440   -3.2172 H   0  0  0  0  0  0  0  0  0  0  0  0
    5.3502   -2.8754   -4.4820 H   0  0  0  0  0  0  0  0  0  0  0  0
    4.4333   -2.9100   -2.9606 H   0  0  0  0  0  0  0  0  0  0  0  0
  1  6  1  0  0  0  0
  1  2  1  0  0  0  0
  1 17  1  0  0  0  0
  1 18  1  0  0  0  0
  2  3  1  0  0  0  0
  2 19  1  0  0  0  0
  2 20  1  0  0  0  0
  3  4  1  0  0  0  0
  3 21  1  0  0  0  0
  3 22  1  0  0  0  0
  4  9  1  0  0  0  0
  4  5  1  0  0  0  0
  4 23  1  1  0  0  0
  5  6  1  0  0  0  0
  5  7  1  0  0  0  0
  5 24  1  6  0  0  0
  6 25  1  0  0  0  0
  6 26  1  0  0  0  0
  7  8  1  0  0  0  0
  7 27  1  0  0  0  0
  7 28  1  0  0  0  0
  8 15  1  0  0  0  0
  8  9  1  0  0  0  0
  8 29  1  1  0  0  0
  9 10  1  0  0  0  0
 10 11  2  0  0  0  0
 10 12  1  0  0  0  0
 12 13  1  0  0  0  0
 12 30  1  0  0  0  0
 12 31  1  0  0  0  0
 13 14  1  0  0  0  0
 13 32  1  0  0  0  0
 13 33  1  0  0  0  0
 14 15  1  0  0  0  0
 15 16  2  0  0  0  0
M  END
$$$$
CHEMBL19951
 OpenBabel01252620473D

 55 57  0  0  1  0  0  0  0  0999 V2000
   -0.2640    1.4964    0.1806 C   0  0  0  0  0  0  0  0  0  0  0  0
    0.0019    0.0001    0.0039 C   0  0  1  0  0  0  0  0  0  0  0  0
    0.5370   -0.1660   -0.9311 H   0  0  0  0  0  0  0  0  0  0  0  0
    0.8348   -0.5015    1.1553 C   0  0  0  0  0  0  0  0  0  0  0  0
    0.2955   -0.9760    2.1325 O   0  0  0  0  0  0  0  0  0  0  0  0
    2.1791   -0.4228    1.0992 N   0  0  0  0  0  0  0  0  0  0  0  0
    3.1168   -0.9533    2.0754 C   0  0  2  0  0  0  0  0  0  0  0  0
    2.6684   -1.0184    3.5203 C   0  0  0  0  0  0  0  0  0  0  0  0
    3.8163   -1.6454    4.3289 C   0  0  0  0  0  0  0  0  0  0  0  0
    5.1078   -0.8486    4.1711 C   0  0  0  0  0  0  0  0  0  0  0  0
    5.4892   -0.6815    2.6915 C   0  0  0  0  0  0  0  0  0  0  0  0
    4.3284    0.0154    2.0022 C   0  0  1  0  0  0  0  0  0  0  0  0
    4.4656    0.1652    0.4790 C   0  0  0  0  0  0  0  0  0  0  0  0
    2.9796    0.2154    0.0274 C   0  0  1  0  0  0  0  0  0  0  0  0
    2.8060   -0.5425   -1.2636 C   0  0  0  0  0  0  0  0  0  0  0  0
    3.2337   -0.0769   -2.3060 O   0  0  0  0  0  0  0  0  0  0  0  0
    2.2379   -1.6212   -1.2655 O   0  0  0  0  0  1  0  0  0  0  0  0
   -1.2724   -0.7220   -0.0279 N   0  0  0  0  0  0  0  0  0  0  0  0
   -1.9526   -0.8378   -1.1857 C   0  0  0  0  0  0  0  0  0  0  0  0
   -1.5097   -0.3442   -2.2012 O   0  0  0  0  0  0  0  0  0  0  0  0
   -3.2634   -1.5805   -1.2184 C   0  0  2  0  0  0  0  0  0  0  0  0
   -3.2931   -2.3014   -0.4014 H   0  0  0  0  0  0  0  0  0  0  0  0
   -3.3995   -2.3162   -2.5530 C   0  0  0  0  0  0  0  0  0  0  0  0
   -4.6505   -3.1565   -2.5381 C   0  0  0  0  0  0  0  0  0  0  0  0
   -4.6018   -4.4605   -2.0821 C   0  0  0  0  0  0  0  0  0  0  0  0
   -5.7493   -5.2313   -2.0684 C   0  0  0  0  0  0  0  0  0  0  0  0
   -6.9455   -4.6978   -2.5103 C   0  0  0  0  0  0  0  0  0  0  0  0
   -6.9944   -3.3934   -2.9655 C   0  0  0  0  0  0  0  0  0  0  0  0
   -5.8478   -2.6213   -2.9751 C   0  0  0  0  0  0  0  0  0  0  0  0
   -4.6306   -0.4024   -1.0352 S   0  0  0  0  0  0  0  0  0  0  0  0
    0.6824    2.0202    0.3151 H   0  0  0  0  0  0  0  0  0  0  0  0
   -0.7704    1.8824   -0.7041 H   0  0  0  0  0  0  0  0  0  0  0  0
   -0.8934    1.6526    1.0567 H   0  0  0  0  0  0  0  0  0  0  0  0
    3.4353   -1.9479    1.7632 H   0  0  0  0  0  0  0  0  0  0  0  0
    2.4604   -0.0141    3.8894 H   0  0  0  0  0  0  0  0  0  0  0  0
    1.7750   -1.6373    3.6036 H   0  0  0  0  0  0  0  0  0  0  0  0
    3.5386   -1.6695    5.3827 H   0  0  0  0  0  0  0  0  0  0  0  0
    3.9817   -2.6653    3.9815 H   0  0  0  0  0  0  0  0  0  0  0  0
    4.9755    0.1365    4.6184 H   0  0  0  0  0  0  0  0  0  0  0  0
    5.9130   -1.3689    4.6899 H   0  0  0  0  0  0  0  0  0  0  0  0
    6.3898   -0.0734    2.6071 H   0  0  0  0  0  0  0  0  0  0  0  0
    5.6567   -1.6588    2.2390 H   0  0  0  0  0  0  0  0  0  0  0  0
    4.1033    0.9678    2.4822 H   0  0  0  0  0  0  0  0  0  0  0  0
    4.9852    1.0886    0.2231 H   0  0  0  0  0  0  0  0  0  0  0  0
    4.9714   -0.6979    0.0463 H   0  0  0  0  0  0  0  0  0  0  0  0
    2.6676    1.2517   -0.1022 H   0  0  0  0  0  0  0  0  0  0  0  0
   -1.6266   -1.1167    0.7843 H   0  0  0  0  0  0  0  0  0  0  0  0
   -3.4592   -1.5902   -3.3637 H   0  0  0  0  0  0  0  0  0  0  0  0
   -2.5321   -2.9588   -2.7037 H   0  0  0  0  0  0  0  0  0  0  0  0
   -3.6672   -4.8773   -1.7368 H   0  0  0  0  0  0  0  0  0  0  0  0
   -5.7111   -6.2503   -1.7128 H   0  0  0  0  0  0  0  0  0  0  0  0
   -7.8419   -5.3001   -2.5003 H   0  0  0  0  0  0  0  0  0  0  0  0
   -7.9289   -2.9767   -3.3111 H   0  0  0  0  0  0  0  0  0  0  0  0
   -5.8867   -1.6011   -3.3273 H   0  0  0  0  0  0  0  0  0  0  0  0
   -4.4905    0.4247   -2.0865 H   0  0  0  0  0  0  0  0  0  0  0  0
  1  2  1  0  0  0  0
  1 31  1  0  0  0  0
  1 32  1  0  0  0  0
  1 33  1  0  0  0  0
  2  3  1  6  0  0  0
  2  4  1  0  0  0  0
  2 18  1  0  0  0  0
  4  5  2  0  0  0  0
  4  6  1  0  0  0  0
  6 14  1  0  0  0  0
  6  7  1  0  0  0  0
  7 12  1  0  0  0  0
  7  8  1  0  0  0  0
  7 34  1  6  0  0  0
  8  9  1  0  0  0  0
  8 35  1  0  0  0  0
  8 36  1  0  0  0  0
  9 10  1  0  0  0  0
  9 37  1  0  0  0  0
  9 38  1  0  0  0  0
 10 11  1  0  0  0  0
 10 39  1  0  0  0  0
 10 40  1  0  0  0  0
 11 12  1  0  0  0  0
 11 41  1  0  0  0  0
 11 42  1  0  0  0  0
 12 13  1  0  0  0  0
 12 43  1  1  0  0  0
 13 14  1  0  0  0  0
 13 44  1  0  0  0  0
 13 45  1  0  0  0  0
 14 15  1  0  0  0  0
 14 46  1  6  0  0  0
 15 16  2  0  0  0  0
 15 17  1  0  0  0  0
 18 19  1  0  0  0  0
 18 47  1  0  0  0  0
 19 20  2  0  0  0  0
 19 21  1  0  0  0  0
 21 22  1  1  0  0  0
 21 23  1  0  0  0  0
 21 30  1  0  0  0  0
 23 24  1  0  0  0  0
 23 48  1  0  0  0  0
 23 49  1  0  0  0  0
 24 29  2  0  0  0  0
 24 25  1  0  0  0  0
 25 26  2  0  0  0  0
 25 50  1  0  0  0  0
 26 27  1  0  0  0  0
 26 51  1  0  0  0  0
 27 28  2  0  0  0  0
 27 52  1  0  0  0  0
 28 29  1  0  0  0  0
 28 53  1  0  0  0  0
 29 54  1  0  0  0  0
 30 55  1  0  0  0  0
M  END
$$$$
CHEMBL19935
 OpenBabel01252620473D

 50 51  0  0  1  0  0  0  0  0999 V2000
    0.9306   -2.3114   -0.4189 C   0  0  0  0  0  0  0  0  0  0  0  0
    0.6246   -2.0107    1.0497 C   0  0  0  0  0  0  0  0  0  0  0  0
    0.8618   -0.5247    1.3262 C   0  0  1  0  0  0  0  0  0  0  0  0
    0.2783    0.0728    0.6257 H   0  0  0  0  0  0  0  0  0  0  0  0
    0.4317   -0.1972    2.7575 C   0  0  0  0  0  0  0  0  0  0  0  0
    2.3481   -0.2049    1.1545 C   0  0  1  0  0  0  0  0  0  0  0  0
    2.6816   -0.5430    0.1734 H   0  0  0  0  0  0  0  0  0  0  0  0
    2.5586    1.2828    1.2714 C   0  0  0  0  0  0  0  0  0  0  0  0
    2.8495    1.7717    2.3425 O   0  0  0  0  0  0  0  0  0  0  0  0
    2.4237    2.0699    0.1857 N   0  0  0  0  0  0  0  0  0  0  0  0
    1.9682    1.6277   -1.1448 C   0  0  0  0  0  0  0  0  0  0  0  0
    1.4002    2.9041   -1.8140 C   0  0  0  0  0  0  0  0  0  0  0  0
    2.3826    3.9892   -1.2992 C   0  0  0  0  0  0  0  0  0  0  0  0
    2.7003    3.5129    0.1338 C   0  0  2  0  0  0  0  0  0  0  0  0
    4.1524    3.7680    0.4457 C   0  0  0  0  0  0  0  0  0  0  0  0
    4.9930    2.9318    0.1615 O   0  0  0  0  0  0  0  0  0  0  0  0
    4.4867    4.8105    0.9822 O   0  0  0  0  0  1  0  0  0  0  0  0
    3.1185   -0.8904    2.1951 N   0  0  0  0  0  0  0  0  0  0  0  0
    3.5053   -2.1688    2.0152 C   0  0  0  0  0  0  0  0  0  0  0  0
    3.2157   -2.7518    0.9919 O   0  0  0  0  0  0  0  0  0  0  0  0
    4.2978   -2.8740    3.0856 C   0  0  2  0  0  0  0  0  0  0  0  0
    4.8322   -2.1380    3.6863 H   0  0  0  0  0  0  0  0  0  0  0  0
    5.2871   -3.8116    2.4427 C   0  0  0  0  0  0  0  0  0  0  0  0
    4.8408   -4.8321    1.6241 C   0  0  0  0  0  0  0  0  0  0  0  0
    5.7483   -5.6922    1.0344 C   0  0  0  0  0  0  0  0  0  0  0  0
    7.1021   -5.5313    1.2630 C   0  0  0  0  0  0  0  0  0  0  0  0
    7.5485   -4.5102    2.0809 C   0  0  0  0  0  0  0  0  0  0  0  0
    6.6412   -3.6475    2.6672 C   0  0  0  0  0  0  0  0  0  0  0  0
    3.1715   -3.8191    4.1481 S   0  0  0  0  0  1  0  0  0  0  0  0
    1.9475   -1.9946   -0.6505 H   0  0  0  0  0  0  0  0  0  0  0  0
    0.8339   -3.3822   -0.5984 H   0  0  0  0  0  0  0  0  0  0  0  0
    0.2283   -1.7716   -1.0543 H   0  0  0  0  0  0  0  0  0  0  0  0
   -0.4153   -2.2584    1.2623 H   0  0  0  0  0  0  0  0  0  0  0  0
    1.2777   -2.6075    1.6864 H   0  0  0  0  0  0  0  0  0  0  0  0
    1.0152   -0.7948    3.4579 H   0  0  0  0  0  0  0  0  0  0  0  0
    0.6007    0.8614    2.9544 H   0  0  0  0  0  0  0  0  0  0  0  0
   -0.6272   -0.4251    2.8798 H   0  0  0  0  0  0  0  0  0  0  0  0
    2.8063    1.2375   -1.7223 H   0  0  0  0  0  0  0  0  0  0  0  0
    1.1891    0.8717   -1.0472 H   0  0  0  0  0  0  0  0  0  0  0  0
    1.4389    2.8259   -2.9005 H   0  0  0  0  0  0  0  0  0  0  0  0
    0.3841    3.1042   -1.4742 H   0  0  0  0  0  0  0  0  0  0  0  0
    3.2849    4.0137   -1.9103 H   0  0  0  0  0  0  0  0  0  0  0  0
    1.9016    4.9671   -1.2804 H   0  0  0  0  0  0  0  0  0  0  0  0
    2.0675    4.0376    0.8497 H   0  0  0  0  0  0  0  0  0  0  0  0
    3.3502   -0.4241    3.0135 H   0  0  0  0  0  0  0  0  0  0  0  0
    3.7831   -4.9578    1.4455 H   0  0  0  0  0  0  0  0  0  0  0  0
    5.3996   -6.4899    0.3954 H   0  0  0  0  0  0  0  0  0  0  0  0
    7.8111   -6.2037    0.8029 H   0  0  0  0  0  0  0  0  0  0  0  0
    8.6061   -4.3848    2.2598 H   0  0  0  0  0  0  0  0  0  0  0  0
    6.9902   -2.8475    3.3032 H   0  0  0  0  0  0  0  0  0  0  0  0
  1  2  1  0  0  0  0
  1 30  1  0  0  0  0
  1 31  1  0  0  0  0
  1 32  1  0  0  0  0
  2  3  1  0  0  0  0
  2 33  1  0  0  0  0
  2 34  1  0  0  0  0
  3  4  1  6  0  0  0
  3  5  1  0  0  0  0
  3  6  1  0  0  0  0
  5 35  1  0  0  0  0
  5 36  1  0  0  0  0
  5 37  1  0  0  0  0
  6  7  1  6  0  0  0
  6  8  1  0  0  0  0
  6 18  1  0  0  0  0
  8  9  2  0  0  0  0
  8 10  1  0  0  0  0
 10 14  1  0  0  0  0
 10 11  1  0  0  0  0
 11 12  1  0  0  0  0
 11 38  1  0  0  0  0
 11 39  1  0  0  0  0
 12 13  1  0  0  0  0
 12 40  1  0  0  0  0
 12 41  1  0  0  0  0
 13 14  1  0  0  0  0
 13 42  1  0  0  0  0
 13 43  1  0  0  0  0
 14 15  1  0  0  0  0
 14 44  1  1  0  0  0
 15 16  2  0  0  0  0
 15 17  1  0  0  0  0
 18 19  1  0  0  0  0
 18 45  1  0  0  0  0
 19 20  2  0  0  0  0
 19 21  1  0  0  0  0
 21 22  1  1  0  0  0
 21 23  1  0  0  0  0
 21 29  1  0  0  0  0
 23 28  2  0  0  0  0
 23 24  1  0  0  0  0
 24 25  2  0  0  0  0
 24 46  1  0  0  0  0
 25 26  1  0  0  0  0
 25 47  1  0  0  0  0
 26 27  2  0  0  0  0
 26 48  1  0  0  0  0
 27 28  1  0  0  0  0
 27 49  1  0  0  0  0
 28 50  1  0  0  0  0
M  END
$$$$
CHEMBL174601
 OpenBabel01252620473D

 34 35  0  0  1  0  0  0  0  0999 V2000
   -0.0188    1.5365    0.0105 C   0  0  0  0  0  0  0  0  0  0  0  0
    1.3897    2.1212    0.0002 C   0  0  0  0  0  0  0  0  0  0  0  0
    2.2547    1.5531    1.1399 C   0  0  0  0  0  0  0  0  0  0  0  0
    2.2472    0.0506    0.9906 C   0  0  2  0  0  0  0  0  0  0  0  0
    0.7858   -0.4274    1.2310 C   0  0  1  0  0  0  0  0  0  0  0  0
    0.0021   -0.0041    0.0020 C   0  0  0  0  0  0  0  0  0  0  0  0
    1.0460   -1.9220    1.4155 C   0  0  2  0  0  0  0  0  0  0  0  0
    2.3519   -1.9607    2.1159 N   0  0  0  0  0  0  0  0  0  0  0  0
    3.0258   -0.7892    1.9451 C   0  0  0  0  0  0  0  0  0  0  0  0
    4.0723   -0.4837    2.4752 O   0  0  0  0  0  0  0  0  0  0  0  0
    2.8099   -3.0114    2.8250 C   0  0  0  0  0  0  0  0  0  0  0  0
    2.1383   -4.0159    2.9224 O   0  0  0  0  0  0  0  0  0  0  0  0
    4.1569   -2.9375    3.4966 C   0  0  0  0  0  0  0  0  0  0  0  0
    4.4344   -4.2519    4.2290 C   0  0  0  0  0  0  0  0  0  0  0  0
    6.0559   -4.1629    5.0375 S   0  0  0  0  0  0  0  0  0  0  0  0
    1.1394   -2.6135    0.0797 C   0  0  0  0  0  0  0  0  0  0  0  0
    2.2122   -3.0402   -0.3121 O   0  0  0  0  0  0  0  0  0  0  0  0
    0.1422   -2.7461   -0.6091 O   0  0  0  0  0  1  0  0  0  0  0  0
   -0.5395    1.8798    0.9044 H   0  0  0  0  0  0  0  0  0  0  0  0
   -0.5564    1.8894   -0.8696 H   0  0  0  0  0  0  0  0  0  0  0  0
    1.8631    1.8897   -0.9539 H   0  0  0  0  0  0  0  0  0  0  0  0
    1.3253    3.2038    0.1093 H   0  0  0  0  0  0  0  0  0  0  0  0
    3.2740    1.9302    1.0568 H   0  0  0  0  0  0  0  0  0  0  0  0
    1.8306    1.8334    2.1041 H   0  0  0  0  0  0  0  0  0  0  0  0
    2.5305   -0.2098   -0.0292 H   0  0  0  0  0  0  0  0  0  0  0  0
    0.3673    0.0200    2.1326 H   0  0  0  0  0  0  0  0  0  0  0  0
   -1.0151   -0.3923    0.0549 H   0  0  0  0  0  0  0  0  0  0  0  0
    0.4957   -0.3666   -0.8997 H   0  0  0  0  0  0  0  0  0  0  0  0
    0.2674   -2.3744    2.0296 H   0  0  0  0  0  0  0  0  0  0  0  0
    4.9288   -2.7702    2.7454 H   0  0  0  0  0  0  0  0  0  0  0  0
    4.1617   -2.1150    4.2119 H   0  0  0  0  0  0  0  0  0  0  0  0
    3.6626   -4.4192    4.9802 H   0  0  0  0  0  0  0  0  0  0  0  0
    4.4297   -5.0744    3.5138 H   0  0  0  0  0  0  0  0  0  0  0  0
    6.1854   -5.3587    5.6395 H   0  0  0  0  0  0  0  0  0  0  0  0
  1  6  1  0  0  0  0
  1  2  1  0  0  0  0
  1 19  1  0  0  0  0
  1 20  1  0  0  0  0
  2  3  1  0  0  0  0
  2 21  1  0  0  0  0
  2 22  1  0  0  0  0
  3  4  1  0  0  0  0
  3 23  1  0  0  0  0
  3 24  1  0  0  0  0
  4  9  1  0  0  0  0
  4  5  1  0  0  0  0
  4 25  1  6  0  0  0
  5  6  1  0  0  0  0
  5  7  1  0  0  0  0
  5 26  1  1  0  0  0
  6 27  1  0  0  0  0
  6 28  1  0  0  0  0
  7  8  1  0  0  0  0
  7 16  1  0  0  0  0
  7 29  1  1  0  0  0
  8  9  1  0  0  0  0
  8 11  1  0  0  0  0
  9 10  2  0  0  0  0
 11 12  2  0  0  0  0
 11 13  1  0  0  0  0
 13 14  1  0  0  0  0
 13 30  1  0  0  0  0
 13 31  1  0  0  0  0
 14 15  1  0  0  0  0
 14 32  1  0  0  0  0
 14 33  1  0  0  0  0
 15 34  1  0  0  0  0
 16 17  2  0  0  0  0
 16 18  1  0  0  0  0
M  END
$$$$
CHEMBL110444
 OpenBabel01252620473D

 34 35  0  0  1  0  0  0  0  0999 V2000
    0.1074    1.1888    0.2397 C   0  0  0  0  0  0  0  0  0  0  0  0
    1.2923    1.8568   -0.0097 C   0  0  0  0  0  0  0  0  0  0  0  0
    2.4181    1.1510   -0.3867 C   0  0  0  0  0  0  0  0  0  0  0  0
    2.3595   -0.2294   -0.5148 C   0  0  0  0  0  0  0  0  0  0  0  0
    1.1699   -0.8971   -0.2637 C   0  0  0  0  0  0  0  0  0  0  0  0
    0.0464   -0.1864    0.1128 C   0  0  0  0  0  0  0  0  0  0  0  0
    1.1027   -2.3962   -0.4023 C   0  0  2  0  0  0  0  0  0  0  0  0
   -0.2944   -2.8644   -0.3275 N   0  0  0  0  0  0  0  0  0  0  0  0
   -0.6438   -3.6554    0.8490 C   0  0  2  0  0  0  0  0  0  0  0  0
    0.5798   -4.4816    1.3439 C   0  0  0  0  0  0  0  0  0  0  0  0
    1.8976   -3.2199    1.0419 S   0  0  0  0  0  0  0  0  0  0  0  0
   -1.7681   -4.5957    0.4985 C   0  0  0  0  0  0  0  0  0  0  0  0
   -1.7530   -5.1951   -0.5631 O   0  0  0  0  0  0  0  0  0  0  0  0
   -2.6928   -4.7571    1.2765 O   0  0  0  0  0  1  0  0  0  0  0  0
   -1.1953   -2.5783   -1.2883 C   0  0  0  0  0  0  0  0  0  0  0  0
   -2.3171   -3.0347   -1.2230 O   0  0  0  0  0  0  0  0  0  0  0  0
   -0.8086   -1.6916   -2.4438 C   0  0  0  0  0  0  0  0  0  0  0  0
   -1.9559   -1.6420   -3.4548 C   0  0  0  0  0  0  0  0  0  0  0  0
   -1.4905   -0.5746   -4.8457 S   0  0  0  0  0  0  0  0  0  0  0  0
    3.4658   -0.9260   -0.8862 O   0  0  0  0  0  0  0  0  0  0  0  0
   -0.7707    1.7421    0.5385 H   0  0  0  0  0  0  0  0  0  0  0  0
    1.3373    2.9312    0.0902 H   0  0  0  0  0  0  0  0  0  0  0  0
    3.3431    1.6731   -0.5821 H   0  0  0  0  0  0  0  0  0  0  0  0
   -0.8802   -0.7057    0.3080 H   0  0  0  0  0  0  0  0  0  0  0  0
    1.5696   -2.7168   -1.3336 H   0  0  0  0  0  0  0  0  0  0  0  0
   -0.9717   -2.9878    1.6457 H   0  0  0  0  0  0  0  0  0  0  0  0
    0.4957   -4.7286    2.4022 H   0  0  0  0  0  0  0  0  0  0  0  0
    0.7328   -5.3745    0.7377 H   0  0  0  0  0  0  0  0  0  0  0  0
   -0.6037   -0.6857   -2.0772 H   0  0  0  0  0  0  0  0  0  0  0  0
    0.0835   -2.0913   -2.9260 H   0  0  0  0  0  0  0  0  0  0  0  0
   -2.1608   -2.6479   -3.8215 H   0  0  0  0  0  0  0  0  0  0  0  0
   -2.8480   -1.2423   -2.9727 H   0  0  0  0  0  0  0  0  0  0  0  0
   -2.5634   -0.6098   -5.6561 H   0  0  0  0  0  0  0  0  0  0  0  0
    4.0150   -1.2161   -0.1451 H   0  0  0  0  0  0  0  0  0  0  0  0
  1  6  2  0  0  0  0
  1  2  1  0  0  0  0
  1 21  1  0  0  0  0
  2  3  2  0  0  0  0
  2 22  1  0  0  0  0
  3  4  1  0  0  0  0
  3 23  1  0  0  0  0
  4  5  2  0  0  0  0
  4 20  1  0  0  0  0
  5  6  1  0  0  0  0
  5  7  1  0  0  0  0
  6 24  1  0  0  0  0
  7 11  1  0  0  0  0
  7  8  1  0  0  0  0
  7 25  1  6  0  0  0
  8  9  1  0  0  0  0
  8 15  1  0  0  0  0
  9 10  1  0  0  0  0
  9 12  1  0  0  0  0
  9 26  1  1  0  0  0
 10 11  1  0  0  0  0
 10 27  1  0  0  0  0
 10 28  1  0  0  0  0
 12 13  2  0  0  0  0
 12 14  1  0  0  0  0
 15 16  2  0  0  0  0
 15 17  1  0  0  0  0
 17 18  1  0  0  0  0
 17 29  1  0  0  0  0
 17 30  1  0  0  0  0
 18 19  1  0  0  0  0
 18 31  1  0  0  0  0
 18 32  1  0  0  0  0
 19 33  1  0  0  0  0
 20 34  1  0  0  0  0
M  END
$$$$
CHEMBL49920
 OpenBabel01252620473D

 55 57  0  0  1  0  0  0  0  0999 V2000
   -2.1519   -3.8310   -3.2101 C   0  0  0  0  0  0  0  0  0  0  0  0
   -1.6322   -3.5123   -4.6134 C   0  0  1  0  0  0  0  0  0  0  0  0
   -2.2006   -2.6814   -5.0313 H   0  0  0  0  0  0  0  0  0  0  0  0
   -0.1751   -3.1357   -4.5360 C   0  0  0  0  0  0  0  0  0  0  0  0
    0.6655   -3.9948   -4.3740 O   0  0  0  0  0  0  0  0  0  0  0  0
    0.1939   -1.8442   -4.6467 N   0  0  0  0  0  0  0  0  0  0  0  0
   -0.8023   -0.7708   -4.7306 C   0  0  0  0  0  0  0  0  0  0  0  0
   -0.3961    0.3704   -3.8323 C   0  0  0  0  0  0  0  0  0  0  0  0
   -1.3300    1.3692   -3.5916 C   0  0  0  0  0  0  0  0  0  0  0  0
   -1.0140    2.4440   -2.7865 C   0  0  0  0  0  0  0  0  0  0  0  0
    0.2430    2.5274   -2.2165 C   0  0  0  0  0  0  0  0  0  0  0  0
    1.1700    1.5338   -2.4517 C   0  0  0  0  0  0  0  0  0  0  0  0
    0.8524    0.4468   -3.2574 C   0  0  0  0  0  0  0  0  0  0  0  0
    1.9057   -0.6127   -3.4472 C   0  0  0  0  0  0  0  0  0  0  0  0
    1.6130   -1.4537   -4.6822 C   0  0  1  0  0  0  0  0  0  0  0  0
    1.8120   -0.8682   -5.5798 H   0  0  0  0  0  0  0  0  0  0  0  0
    2.4811   -2.6856   -4.6732 C   0  0  0  0  0  0  0  0  0  0  0  0
    2.5063   -3.4208   -5.6455 O   0  0  0  0  0  0  0  0  0  0  0  0
    3.1581   -2.9470   -3.6935 O   0  0  0  0  0  1  0  0  0  0  0  0
   -1.7873   -4.6902   -5.4707 N   0  0  0  0  0  0  0  0  0  0  0  0
   -2.9588   -4.9185   -6.0966 C   0  0  0  0  0  0  0  0  0  0  0  0
   -3.8846   -4.1489   -5.9503 O   0  0  0  0  0  0  0  0  0  0  0  0
   -3.1183   -6.1301   -6.9785 C   0  0  2  0  0  0  0  0  0  0  0  0
   -2.2542   -6.2163   -7.6373 H   0  0  0  0  0  0  0  0  0  0  0  0
   -4.3882   -5.9853   -7.8194 C   0  0  0  0  0  0  0  0  0  0  0  0
   -4.2189   -4.8477   -8.7932 C   0  0  0  0  0  0  0  0  0  0  0  0
   -4.7194   -3.5960   -8.4877 C   0  0  0  0  0  0  0  0  0  0  0  0
   -4.5641   -2.5525   -9.3810 C   0  0  0  0  0  0  0  0  0  0  0  0
   -3.9077   -2.7608  -10.5796 C   0  0  0  0  0  0  0  0  0  0  0  0
   -3.4064   -4.0123  -10.8848 C   0  0  0  0  0  0  0  0  0  0  0  0
   -3.5580   -5.0547   -9.9896 C   0  0  0  0  0  0  0  0  0  0  0  0
   -3.2231   -7.3841   -6.1082 C   0  0  0  0  0  0  0  0  0  0  0  0
   -3.2423   -8.8560   -7.1682 S   0  0  0  0  0  0  0  0  0  0  0  0
   -1.6627   -4.7308   -2.8371 H   0  0  0  0  0  0  0  0  0  0  0  0
   -1.9340   -2.9963   -2.5437 H   0  0  0  0  0  0  0  0  0  0  0  0
   -3.2291   -3.9928   -3.2496 H   0  0  0  0  0  0  0  0  0  0  0  0
   -0.8683   -0.4168   -5.7594 H   0  0  0  0  0  0  0  0  0  0  0  0
   -1.7737   -1.1521   -4.4159 H   0  0  0  0  0  0  0  0  0  0  0  0
   -2.3111    1.3044   -4.0382 H   0  0  0  0  0  0  0  0  0  0  0  0
   -1.7454    3.2169   -2.6021 H   0  0  0  0  0  0  0  0  0  0  0  0
    0.4982    3.3685   -1.5890 H   0  0  0  0  0  0  0  0  0  0  0  0
    2.1515    1.6013   -2.0062 H   0  0  0  0  0  0  0  0  0  0  0  0
    2.8789   -0.1348   -3.5594 H   0  0  0  0  0  0  0  0  0  0  0  0
    1.9243   -1.2608   -2.5710 H   0  0  0  0  0  0  0  0  0  0  0  0
   -1.0468   -5.3057   -5.5877 H   0  0  0  0  0  0  0  0  0  0  0  0
   -4.5680   -6.9097   -8.3682 H   0  0  0  0  0  0  0  0  0  0  0  0
   -5.2357   -5.7804   -7.1652 H   0  0  0  0  0  0  0  0  0  0  0  0
   -5.2322   -3.4333   -7.5512 H   0  0  0  0  0  0  0  0  0  0  0  0
   -4.9558   -1.5747   -9.1426 H   0  0  0  0  0  0  0  0  0  0  0  0
   -3.7870   -1.9457  -11.2779 H   0  0  0  0  0  0  0  0  0  0  0  0
   -2.8939   -4.1751  -11.8214 H   0  0  0  0  0  0  0  0  0  0  0  0
   -3.1630   -6.0316  -10.2264 H   0  0  0  0  0  0  0  0  0  0  0  0
   -2.3669   -7.4320   -5.4353 H   0  0  0  0  0  0  0  0  0  0  0  0
   -4.1426   -7.3451   -5.5240 H   0  0  0  0  0  0  0  0  0  0  0  0
   -3.3357   -9.8801   -6.3014 H   0  0  0  0  0  0  0  0  0  0  0  0
  1  2  1  0  0  0  0
  1 34  1  0  0  0  0
  1 35  1  0  0  0  0
  1 36  1  0  0  0  0
  2  3  1  6  0  0  0
  2  4  1  0  0  0  0
  2 20  1  0  0  0  0
  4  5  2  0  0  0  0
  4  6  1  0  0  0  0
  6 15  1  0  0  0  0
  6  7  1  0  0  0  0
  7  8  1  0  0  0  0
  7 37  1  0  0  0  0
  7 38  1  0  0  0  0
  8 13  2  0  0  0  0
  8  9  1  0  0  0  0
  9 10  2  0  0  0  0
  9 39  1  0  0  0  0
 10 11  1  0  0  0  0
 10 40  1  0  0  0  0
 11 12  2  0  0  0  0
 11 41  1  0  0  0  0
 12 13  1  0  0  0  0
 12 42  1  0  0  0  0
 13 14  1  0  0  0  0
 14 15  1  0  0  0  0
 14 43  1  0  0  0  0
 14 44  1  0  0  0  0
 15 16  1  6  0  0  0
 15 17  1  0  0  0  0
 17 18  2  0  0  0  0
 17 19  1  0  0  0  0
 20 21  1  0  0  0  0
 20 45  1  0  0  0  0
 21 22  2  0  0  0  0
 21 23  1  0  0  0  0
 23 24  1  6  0  0  0
 23 25  1  0  0  0  0
 23 32  1  0  0  0  0
 25 26  1  0  0  0  0
 25 46  1  0  0  0  0
 25 47  1  0  0  0  0
 26 31  2  0  0  0  0
 26 27  1  0  0  0  0
 27 28  2  0  0  0  0
 27 48  1  0  0  0  0
 28 29  1  0  0  0  0
 28 49  1  0  0  0  0
 29 30  2  0  0  0  0
 29 50  1  0  0  0  0
 30 31  1  0  0  0  0
 30 51  1  0  0  0  0
 31 52  1  0  0  0  0
 32 33  1  0  0  0  0
 32 53  1  0  0  0  0
 32 54  1  0  0  0  0
 33 55  1  0  0  0  0
M  END
$$$$
CHEMBL255568
 OpenBabel01252620473D

 51 52  0  0  1  0  0  0  0  0999 V2000
   -0.0187    1.5258    0.0104 C   0  0  0  0  0  0  0  0  0  0  0  0
    0.0021   -0.0041    0.0020 C   0  0  0  0  0  0  0  0  0  0  0  0
   -1.4333   -0.5336    0.0129 C   0  0  0  0  0  0  0  0  0  0  0  0
    0.7182   -0.4975   -1.2568 C   0  0  0  0  0  0  0  0  0  0  0  0
    2.1249   -0.0911   -1.2094 N   0  0  0  0  0  0  0  0  0  0  0  0
    3.1214   -0.9713   -0.5942 C   0  0  0  0  0  0  0  0  0  0  0  0
    3.6947   -1.9127   -1.6554 C   0  0  1  0  0  0  0  0  0  0  0  0
    4.1655   -1.3267   -2.4447 H   0  0  0  0  0  0  0  0  0  0  0  0
    4.7197   -2.8182   -1.0226 C   0  0  0  0  0  0  0  0  0  0  0  0
    4.5192   -4.0194   -0.9649 O   0  0  0  0  0  0  0  0  0  0  0  0
    5.7495   -2.3496   -0.5683 O   0  0  0  0  0  1  0  0  0  0  0  0
    2.6410   -2.7015   -2.2117 O   0  0  0  0  0  0  0  0  0  0  0  0
    2.5023    1.0927   -1.7317 C   0  0  0  0  0  0  0  0  0  0  0  0
    3.6698    1.4300   -1.6923 O   0  0  0  0  0  0  0  0  0  0  0  0
    1.5856    1.9025   -2.2976 N   0  0  0  0  0  0  0  0  0  0  0  0
    1.9959    3.1892   -2.8653 C   0  0  1  0  0  0  0  0  0  0  0  0
    2.9874    3.0917   -3.3074 H   0  0  0  0  0  0  0  0  0  0  0  0
    0.9962    3.6130   -3.9433 C   0  0  0  0  0  0  0  0  0  0  0  0
    1.0496    2.6362   -5.0897 C   0  0  0  0  0  0  0  0  0  0  0  0
    1.7768    2.7602   -6.2111 C   0  0  0  0  0  0  0  0  0  0  0  0
    1.5706    1.6782   -7.0230 N   0  0  0  0  0  0  0  0  0  0  0  0
    1.9876    1.5434   -7.8884 H   0  0  0  0  0  0  0  0  0  0  0  0
    0.6829    0.8095   -6.4287 C   0  0  0  0  0  0  0  0  0  0  0  0
    0.3225    1.3683   -5.1887 C   0  0  0  0  0  0  0  0  0  0  0  0
   -0.5721    0.6952   -4.3550 C   0  0  0  0  0  0  0  0  0  0  0  0
   -1.0912   -0.5068   -4.7467 C   0  0  0  0  0  0  0  0  0  0  0  0
   -0.7357   -1.0643   -5.9669 C   0  0  0  0  0  0  0  0  0  0  0  0
    0.1385   -0.4124   -6.8094 C   0  0  0  0  0  0  0  0  0  0  0  0
    2.0316    4.2303   -1.7763 C   0  0  0  0  0  0  0  0  0  0  0  0
    2.8153    5.1614   -1.8486 O   0  0  0  0  0  0  0  0  0  0  0  0
    1.2769    4.1413   -0.8229 O   0  0  0  0  0  1  0  0  0  0  0  0
    1.0039    1.9031    0.0027 H   0  0  0  0  0  0  0  0  0  0  0  0
   -0.5459    1.8868   -0.8726 H   0  0  0  0  0  0  0  0  0  0  0  0
   -0.5289    1.8773    0.9072 H   0  0  0  0  0  0  0  0  0  0  0  0
    0.5293   -0.3651    0.8851 H   0  0  0  0  0  0  0  0  0  0  0  0
   -1.9605   -0.1726   -0.8702 H   0  0  0  0  0  0  0  0  0  0  0  0
   -1.4185   -1.6235    0.0069 H   0  0  0  0  0  0  0  0  0  0  0  0
   -1.9435   -0.1821    0.9097 H   0  0  0  0  0  0  0  0  0  0  0  0
    0.6556   -1.5845   -1.3079 H   0  0  0  0  0  0  0  0  0  0  0  0
    0.2444   -0.0644   -2.1377 H   0  0  0  0  0  0  0  0  0  0  0  0
    3.9251   -0.3697   -0.1698 H   0  0  0  0  0  0  0  0  0  0  0  0
    2.6506   -1.5573    0.1951 H   0  0  0  0  0  0  0  0  0  0  0  0
    2.1765   -3.2499   -1.5647 H   0  0  0  0  0  0  0  0  0  0  0  0
    0.6542    1.6334   -2.3290 H   0  0  0  0  0  0  0  0  0  0  0  0
   -0.0091    3.6244   -3.5222 H   0  0  0  0  0  0  0  0  0  0  0  0
    1.2508    4.6098   -4.3032 H   0  0  0  0  0  0  0  0  0  0  0  0
    2.4280    3.5911   -6.4390 H   0  0  0  0  0  0  0  0  0  0  0  0
   -0.8528    1.1226   -3.4037 H   0  0  0  0  0  0  0  0  0  0  0  0
   -1.7834   -1.0272   -4.1013 H   0  0  0  0  0  0  0  0  0  0  0  0
   -1.1538   -2.0153   -6.2623 H   0  0  0  0  0  0  0  0  0  0  0  0
    0.4098   -0.8551   -7.7564 H   0  0  0  0  0  0  0  0  0  0  0  0
  1  2  1  0  0  0  0
  1 32  1  0  0  0  0
  1 33  1  0  0  0  0
  1 34  1  0  0  0  0
  2  3  1  0  0  0  0
  2  4  1  0  0  0  0
  2 35  1  0  0  0  0
  3 36  1  0  0  0  0
  3 37  1  0  0  0  0
  3 38  1  0  0  0  0
  4  5  1  0  0  0  0
  4 39  1  0  0  0  0
  4 40  1  0  0  0  0
  5  6  1  0  0  0  0
  5 13  1  0  0  0  0
  6  7  1  0  0  0  0
  6 41  1  0  0  0  0
  6 42  1  0  0  0  0
  7  8  1  6  0  0  0
  7  9  1  0  0  0  0
  7 12  1  0  0  0  0
  9 10  2  0  0  0  0
  9 11  1  0  0  0  0
 12 43  1  0  0  0  0
 13 14  2  0  0  0  0
 13 15  1  0  0  0  0
 15 16  1  0  0  0  0
 15 44  1  0  0  0  0
 16 17  1  6  0  0  0
 16 18  1  0  0  0  0
 16 29  1  0  0  0  0
 18 19  1  0  0  0  0
 18 45  1  0  0  0  0
 18 46  1  0  0  0  0
 19 24  1  0  0  0  0
 19 20  2  0  0  0  0
 20 21  1  0  0  0  0
 20 47  1  0  0  0  0
 21 22  1  0  0  0  0
 21 23  1  0  0  0  0
 23 28  2  0  0  0  0
 23 24  1  0  0  0  0
 24 25  2  0  0  0  0
 25 26  1  0  0  0  0
 25 48  1  0  0  0  0
 26 27  2  0  0  0  0
 26 49  1  0  0  0  0
 27 28  1  0  0  0  0
 27 50  1  0  0  0  0
 28 51  1  0  0  0  0
 29 30  2  0  0  0  0
 29 31  1  0  0  0  0
M  END
$$$$
CHEMBL337854
 OpenBabel01252620473D

 30 32  0  0  1  0  0  0  0  0999 V2000
   -0.0187    1.5258    0.0104 C   0  0  0  0  0  0  0  0  0  0  0  0
    0.0021   -0.0041    0.0020 C   0  0  1  0  0  0  0  0  0  0  0  0
    0.6154   -0.4713   -1.3022 C   0  0  0  0  0  0  0  0  0  0  0  0
    0.4415   -2.2658   -1.4880 S   0  0  0  0  0  0  0  0  0  0  0  0
    1.6594   -2.8601   -0.5281 C   0  0  0  0  0  0  0  0  0  0  0  0
    1.8288   -4.0552   -0.4055 O   0  0  0  0  0  0  0  0  0  0  0  0
    2.5505   -1.8736    0.1874 C   0  0  2  0  0  0  0  0  0  0  0  0
    3.7205   -2.6255    0.8387 C   0  0  0  0  0  0  0  0  0  0  0  0
    3.5606   -2.3594    2.3180 C   0  0  0  0  0  0  0  0  0  0  0  0
    4.3096   -2.7756    3.4027 C   0  0  0  0  0  0  0  0  0  0  0  0
    3.9491   -2.3923    4.6812 C   0  0  0  0  0  0  0  0  0  0  0  0
    2.8389   -1.5904    4.8733 C   0  0  0  0  0  0  0  0  0  0  0  0
    2.0903   -1.1721    3.7937 C   0  0  0  0  0  0  0  0  0  0  0  0
    2.4494   -1.5573    2.5009 C   0  0  0  0  0  0  0  0  0  0  0  0
    1.8178   -1.2392    1.2819 N   0  0  0  0  0  0  0  0  0  0  0  0
    0.7236   -0.4739    1.2113 C   0  0  0  0  0  0  0  0  0  0  0  0
    0.2604   -0.1166    2.2738 O   0  0  0  0  0  0  0  0  0  0  0  0
    1.0039    1.9031    0.0027 H   0  0  0  0  0  0  0  0  0  0  0  0
   -0.5459    1.8868   -0.8726 H   0  0  0  0  0  0  0  0  0  0  0  0
   -0.5289    1.8773    0.9072 H   0  0  0  0  0  0  0  0  0  0  0  0
   -1.0255   -0.3645    0.0488 H   0  0  0  0  0  0  0  0  0  0  0  0
    0.1140    0.0256   -2.1328 H   0  0  0  0  0  0  0  0  0  0  0  0
    1.6736   -0.2101   -1.3149 H   0  0  0  0  0  0  0  0  0  0  0  0
    2.9151   -1.1196   -0.5101 H   0  0  0  0  0  0  0  0  0  0  0  0
    3.6481   -3.6936    0.6339 H   0  0  0  0  0  0  0  0  0  0  0  0
    4.6722   -2.2319    0.4816 H   0  0  0  0  0  0  0  0  0  0  0  0
    5.1769   -3.4010    3.2513 H   0  0  0  0  0  0  0  0  0  0  0  0
    4.5340   -2.7184    5.5286 H   0  0  0  0  0  0  0  0  0  0  0  0
    2.5573   -1.2912    5.8721 H   0  0  0  0  0  0  0  0  0  0  0  0
    1.2246   -0.5453    3.9485 H   0  0  0  0  0  0  0  0  0  0  0  0
  1  2  1  0  0  0  0
  1 18  1  0  0  0  0
  1 19  1  0  0  0  0
  1 20  1  0  0  0  0
  2 16  1  0  0  0  0
  2  3  1  0  0  0  0
  2 21  1  1  0  0  0
  3  4  1  0  0  0  0
  3 22  1  0  0  0  0
  3 23  1  0  0  0  0
  4  5  1  0  0  0  0
  5  6  2  0  0  0  0
  5  7  1  0  0  0  0
  7 15  1  0  0  0  0
  7  8  1  0  0  0  0
  7 24  1  6  0  0  0
  8  9  1  0  0  0  0
  8 25  1  0  0  0  0
  8 26  1  0  0  0  0
  9 14  2  0  0  0  0
  9 10  1  0  0  0  0
 10 11  2  0  0  0  0
 10 27  1  0  0  0  0
 11 12  1  0  0  0  0
 11 28  1  0  0  0  0
 12 13  2  0  0  0  0
 12 29  1  0  0  0  0
 13 14  1  0  0  0  0
 13 30  1  0  0  0  0
 14 15  1  0  0  0  0
 15 16  1  0  0  0  0
 16 17  2  0  0  0  0
M  END
$$$$
CHEMBL147899
 OpenBabel01252620473D

 56 57  0  0  1  0  0  0  0  0999 V2000
   -0.6795    0.8790    0.0813 C   0  0  0  0  0  0  0  0  0  0  0  0
   -0.2131   -0.5738    0.1940 C   0  0  0  0  0  0  0  0  0  0  0  0
    0.4132   -1.0127   -1.1312 C   0  0  0  0  0  0  0  0  0  0  0  0
    0.8246   -0.6911    1.3121 C   0  0  1  0  0  0  0  0  0  0  0  0
    1.6836   -0.0622    1.0781 H   0  0  0  0  0  0  0  0  0  0  0  0
    0.2130   -0.2419    2.6142 C   0  0  0  0  0  0  0  0  0  0  0  0
   -0.9736   -0.3958    2.8118 O   0  0  0  0  0  0  0  0  0  0  0  0
    0.9848    0.3310    3.5590 N   0  0  0  0  0  0  0  0  0  0  0  0
    0.3746    0.8617    4.7806 C   0  0  0  0  0  0  0  0  0  0  0  0
   -0.3054   -0.2754    5.5494 C   0  0  0  0  0  0  0  0  0  0  0  0
    0.7527   -1.2954    5.9779 C   0  0  0  0  0  0  0  0  0  0  0  0
    1.7464   -0.6441    6.7719 O   0  0  0  0  0  0  0  0  0  0  0  0
    2.4483    0.3970    6.0896 C   0  0  0  0  0  0  0  0  0  0  0  0
    1.4583    1.4851    5.6656 C   0  0  0  0  0  0  0  0  0  0  0  0
   -0.6463    1.9098    4.4198 C   0  0  0  0  0  0  0  0  0  0  0  0
   -0.8871    2.1462    3.2549 O   0  0  0  0  0  0  0  0  0  0  0  0
   -1.2918    2.5845    5.3917 N   0  0  0  0  0  0  0  0  0  0  0  0
   -2.3609    3.5242    5.0451 C   0  0  1  0  0  0  0  0  0  0  0  0
   -2.9564    3.1126    4.2302 H   0  0  0  0  0  0  0  0  0  0  0  0
   -3.2550    3.7522    6.2655 C   0  0  0  0  0  0  0  0  0  0  0  0
   -3.9159    2.4547    6.6535 C   0  0  0  0  0  0  0  0  0  0  0  0
   -5.0826    2.0596    6.0254 C   0  0  0  0  0  0  0  0  0  0  0  0
   -5.6907    0.8707    6.3796 C   0  0  0  0  0  0  0  0  0  0  0  0
   -5.1294    0.0729    7.3661 C   0  0  0  0  0  0  0  0  0  0  0  0
   -3.9585    0.4714    7.9944 C   0  0  0  0  0  0  0  0  0  0  0  0
   -3.3516    1.6585    7.6330 C   0  0  0  0  0  0  0  0  0  0  0  0
   -5.7259   -1.0968    7.7166 O   0  0  0  0  0  0  0  0  0  0  0  0
   -1.7567    4.8354    4.6130 C   0  0  0  0  0  0  0  0  0  0  0  0
   -2.3374    5.5364    3.8019 O   0  0  0  0  0  0  0  0  0  0  0  0
   -0.6871    5.1953    5.0746 O   0  0  0  0  0  1  0  0  0  0  0  0
    1.3616   -2.4175    1.4601 S   0  0  0  0  0  0  0  0  0  0  0  0
    0.1851    1.5285   -0.0556 H   0  0  0  0  0  0  0  0  0  0  0  0
   -1.3490    0.9805   -0.7729 H   0  0  0  0  0  0  0  0  0  0  0  0
   -1.2067    1.1631    0.9920 H   0  0  0  0  0  0  0  0  0  0  0  0
   -1.0664   -1.2127    0.4217 H   0  0  0  0  0  0  0  0  0  0  0  0
    1.2665   -0.3738   -1.3589 H   0  0  0  0  0  0  0  0  0  0  0  0
    0.7454   -2.0477   -1.0509 H   0  0  0  0  0  0  0  0  0  0  0  0
   -0.3261   -0.9291   -1.9278 H   0  0  0  0  0  0  0  0  0  0  0  0
    1.9443    0.3918    3.4302 H   0  0  0  0  0  0  0  0  0  0  0  0
   -0.8014    0.1276    6.4324 H   0  0  0  0  0  0  0  0  0  0  0  0
   -1.0403   -0.7608    4.9072 H   0  0  0  0  0  0  0  0  0  0  0  0
    0.2807   -2.0852    6.5623 H   0  0  0  0  0  0  0  0  0  0  0  0
    1.2203   -1.7276    5.0931 H   0  0  0  0  0  0  0  0  0  0  0  0
    3.1977    0.8265    6.7544 H   0  0  0  0  0  0  0  0  0  0  0  0
    2.9380   -0.0130    5.2063 H   0  0  0  0  0  0  0  0  0  0  0  0
    1.9847    2.2587    5.1065 H   0  0  0  0  0  0  0  0  0  0  0  0
    0.9979    1.9236    6.5509 H   0  0  0  0  0  0  0  0  0  0  0  0
   -1.0485    2.4479    6.3207 H   0  0  0  0  0  0  0  0  0  0  0  0
   -2.6500    4.1145    7.0966 H   0  0  0  0  0  0  0  0  0  0  0  0
   -4.0191    4.4909    6.0232 H   0  0  0  0  0  0  0  0  0  0  0  0
   -5.5191    2.6810    5.2576 H   0  0  0  0  0  0  0  0  0  0  0  0
   -6.6023    0.5629    5.8892 H   0  0  0  0  0  0  0  0  0  0  0  0
   -3.5197   -0.1480    8.7627 H   0  0  0  0  0  0  0  0  0  0  0  0
   -2.4376    1.9670    8.1188 H   0  0  0  0  0  0  0  0  0  0  0  0
   -5.4253   -1.8604    7.2050 H   0  0  0  0  0  0  0  0  0  0  0  0
    0.2305   -3.0866    1.7463 H   0  0  0  0  0  0  0  0  0  0  0  0
  1  2  1  0  0  0  0
  1 32  1  0  0  0  0
  1 33  1  0  0  0  0
  1 34  1  0  0  0  0
  2  3  1  0  0  0  0
  2  4  1  0  0  0  0
  2 35  1  0  0  0  0
  3 36  1  0  0  0  0
  3 37  1  0  0  0  0
  3 38  1  0  0  0  0
  4  5  1  6  0  0  0
  4  6  1  0  0  0  0
  4 31  1  0  0  0  0
  6  7  2  0  0  0  0
  6  8  1  0  0  0  0
  8  9  1  0  0  0  0
  8 39  1  0  0  0  0
  9 14  1  0  0  0  0
  9 10  1  0  0  0  0
  9 15  1  0  0  0  0
 10 11  1  0  0  0  0
 10 40  1  0  0  0  0
 10 41  1  0  0  0  0
 11 12  1  0  0  0  0
 11 42  1  0  0  0  0
 11 43  1  0  0  0  0
 12 13  1  0  0  0  0
 13 14  1  0  0  0  0
 13 44  1  0  0  0  0
 13 45  1  0  0  0  0
 14 46  1  0  0  0  0
 14 47  1  0  0  0  0
 15 16  2  0  0  0  0
 15 17  1  0  0  0  0
 17 18  1  0  0  0  0
 17 48  1  0  0  0  0
 18 19  1  6  0  0  0
 18 20  1  0  0  0  0
 18 28  1  0  0  0  0
 20 21  1  0  0  0  0
 20 49  1  0  0  0  0
 20 50  1  0  0  0  0
 21 26  2  0  0  0  0
 21 22  1  0  0  0  0
 22 23  2  0  0  0  0
 22 51  1  0  0  0  0
 23 24  1  0  0  0  0
 23 52  1  0  0  0  0
 24 25  2  0  0  0  0
 24 27  1  0  0  0  0
 25 26  1  0  0  0  0
 25 53  1  0  0  0  0
 26 54  1  0  0  0  0
 27 55  1  0  0  0  0
 28 29  2  0  0  0  0
 28 30  1  0  0  0  0
 31 56  1  0  0  0  0
M  END
$$$$
CHEMBL38235
 OpenBabel01252620473D

 57 60  0  0  1  0  0  0  0  0999 V2000
   -0.0187    1.5258    0.0104 C   0  0  0  0  0  0  0  0  0  0  0  0
    0.0021   -0.0041    0.0020 C   0  0  1  0  0  0  0  0  0  0  0  0
    0.7309   -0.5033    1.2229 C   0  0  0  0  0  0  0  0  0  0  0  0
    0.2501   -0.1784    2.4901 C   0  0  0  0  0  0  0  0  0  0  0  0
    0.8847   -0.6127    3.6130 C   0  0  0  0  0  0  0  0  0  0  0  0
    2.0423   -1.4011    3.4966 C   0  0  0  0  0  0  0  0  0  0  0  0
    2.7244   -1.8685    4.6330 C   0  0  0  0  0  0  0  0  0  0  0  0
    3.8420   -2.6301    4.4816 C   0  0  0  0  0  0  0  0  0  0  0  0
    4.3227   -2.9553    3.2144 C   0  0  0  0  0  0  0  0  0  0  0  0
    3.6883   -2.5205    2.0916 C   0  0  0  0  0  0  0  0  0  0  0  0
    2.5310   -1.7318    2.2081 C   0  0  0  0  0  0  0  0  0  0  0  0
    1.8457   -1.2692    1.0716 C   0  0  0  0  0  0  0  0  0  0  0  0
   -1.4333   -0.5336    0.0129 C   0  0  2  0  0  0  0  0  0  0  0  0
   -1.4126   -2.0635    0.0045 C   0  0  0  0  0  0  0  0  0  0  0  0
   -0.6669   -2.6666    1.5442 S   0  0  0  0  0  0  0  0  0  0  0  0
   -2.1622   -0.0344   -1.2080 C   0  0  0  0  0  0  0  0  0  0  0  0
   -1.5899    0.6751   -2.0080 O   0  0  0  0  0  0  0  0  0  0  0  0
   -3.4500   -0.3764   -1.4108 N   0  0  0  0  0  0  0  0  0  0  0  0
   -4.1585    0.1089   -2.5977 C   0  0  1  0  0  0  0  0  0  0  0  0
   -5.3027   -0.8489   -2.9358 C   0  0  0  0  0  0  0  0  0  0  0  0
   -4.7365   -2.1888   -3.3296 C   0  0  0  0  0  0  0  0  0  0  0  0
   -4.4806   -2.6119   -4.5776 C   0  0  0  0  0  0  0  0  0  0  0  0
   -3.9718   -3.8817   -4.5447 N   0  0  0  0  0  0  0  0  0  0  0  0
   -3.7108   -4.3978   -5.3234 H   0  0  0  0  0  0  0  0  0  0  0  0
   -3.8856   -4.3178   -3.2415 C   0  0  0  0  0  0  0  0  0  0  0  0
   -4.3549   -3.2741   -2.4227 C   0  0  0  0  0  0  0  0  0  0  0  0
   -4.3781   -3.4333   -1.0361 C   0  0  0  0  0  0  0  0  0  0  0  0
   -3.9409   -4.6026   -0.4801 C   0  0  0  0  0  0  0  0  0  0  0  0
   -3.4733   -5.6336   -1.2830 C   0  0  0  0  0  0  0  0  0  0  0  0
   -3.4503   -5.5012   -2.6544 C   0  0  0  0  0  0  0  0  0  0  0  0
   -4.7169    1.4815   -2.3232 C   0  0  0  0  0  0  0  0  0  0  0  0
   -4.5394    2.0057   -1.2368 O   0  0  0  0  0  0  0  0  0  0  0  0
   -5.3461    2.0677   -3.1875 O   0  0  0  0  0  1  0  0  0  0  0  0
    1.0039    1.9031    0.0027 H   0  0  0  0  0  0  0  0  0  0  0  0
   -0.5459    1.8868   -0.8726 H   0  0  0  0  0  0  0  0  0  0  0  0
   -0.5289    1.8773    0.9072 H   0  0  0  0  0  0  0  0  0  0  0  0
    0.5123   -0.3556   -0.8948 H   0  0  0  0  0  0  0  0  0  0  0  0
   -0.6393    0.4273    2.5824 H   0  0  0  0  0  0  0  0  0  0  0  0
    0.5010   -0.3525    4.5884 H   0  0  0  0  0  0  0  0  0  0  0  0
    2.3637   -1.6242    5.6212 H   0  0  0  0  0  0  0  0  0  0  0  0
    4.3645   -2.9877    5.3565 H   0  0  0  0  0  0  0  0  0  0  0  0
    5.2121   -3.5609    3.1221 H   0  0  0  0  0  0  0  0  0  0  0  0
    4.0724   -2.7800    1.1161 H   0  0  0  0  0  0  0  0  0  0  0  0
    2.2040   -1.5169    0.0834 H   0  0  0  0  0  0  0  0  0  0  0  0
   -1.9435   -0.1821    0.9097 H   0  0  0  0  0  0  0  0  0  0  0  0
   -2.4321   -2.4402   -0.0774 H   0  0  0  0  0  0  0  0  0  0  0  0
   -0.8263   -2.4142   -0.8449 H   0  0  0  0  0  0  0  0  0  0  0  0
   -0.7040   -4.0054    1.4211 H   0  0  0  0  0  0  0  0  0  0  0  0
   -3.9076   -0.9439   -0.7710 H   0  0  0  0  0  0  0  0  0  0  0  0
   -3.4667    0.1596   -3.4385 H   0  0  0  0  0  0  0  0  0  0  0  0
   -5.9461   -0.9684   -2.0641 H   0  0  0  0  0  0  0  0  0  0  0  0
   -5.8841   -0.4427   -3.7635 H   0  0  0  0  0  0  0  0  0  0  0  0
   -4.6515   -2.0356   -5.4748 H   0  0  0  0  0  0  0  0  0  0  0  0
   -4.7400   -2.6351   -0.4050 H   0  0  0  0  0  0  0  0  0  0  0  0
   -3.9591   -4.7253    0.5928 H   0  0  0  0  0  0  0  0  0  0  0  0
   -3.1305   -6.5514   -0.8288 H   0  0  0  0  0  0  0  0  0  0  0  0
   -3.0835   -6.3087   -3.2706 H   0  0  0  0  0  0  0  0  0  0  0  0
  1  2  1  0  0  0  0
  1 34  1  0  0  0  0
  1 35  1  0  0  0  0
  1 36  1  0  0  0  0
  2  3  1  0  0  0  0
  2 13  1  0  0  0  0
  2 37  1  6  0  0  0
  3 12  2  0  0  0  0
  3  4  1  0  0  0  0
  4  5  2  0  0  0  0
  4 38  1  0  0  0  0
  5  6  1  0  0  0  0
  5 39  1  0  0  0  0
  6 11  2  0  0  0  0
  6  7  1  0  0  0  0
  7  8  2  0  0  0  0
  7 40  1  0  0  0  0
  8  9  1  0  0  0  0
  8 41  1  0  0  0  0
  9 10  2  0  0  0  0
  9 42  1  0  0  0  0
 10 11  1  0  0  0  0
 10 43  1  0  0  0  0
 11 12  1  0  0  0  0
 12 44  1  0  0  0  0
 13 14  1  0  0  0  0
 13 16  1  0  0  0  0
 13 45  1  1  0  0  0
 14 15  1  0  0  0  0
 14 46  1  0  0  0  0
 14 47  1  0  0  0  0
 15 48  1  0  0  0  0
 16 17  2  0  0  0  0
 16 18  1  0  0  0  0
 18 19  1  0  0  0  0
 18 49  1  0  0  0  0
 19 20  1  0  0  0  0
 19 31  1  0  0  0  0
 19 50  1  6  0  0  0
 20 21  1  0  0  0  0
 20 51  1  0  0  0  0
 20 52  1  0  0  0  0
 21 26  1  0  0  0  0
 21 22  2  0  0  0  0
 22 23  1  0  0  0  0
 22 53  1  0  0  0  0
 23 24  1  0  0  0  0
 23 25  1  0  0  0  0
 25 30  2  0  0  0  0
 25 26  1  0  0  0  0
 26 27  2  0  0  0  0
 27 28  1  0  0  0  0
 27 54  1  0  0  0  0
 28 29  2  0  0  0  0
 28 55  1  0  0  0  0
 29 30  1  0  0  0  0
 29 56  1  0  0  0  0
 30 57  1  0  0  0  0
 31 32  2  0  0  0  0
 31 33  1  0  0  0  0
M  END
$$$$
CHEMBL330507
 OpenBabel01252620473D

 56 58  0  0  1  0  0  0  0  0999 V2000
   -0.1752    0.6475    0.0448 C   0  0  0  0  0  0  0  0  0  0  0  0
    0.9328    1.4754    0.0562 C   0  0  0  0  0  0  0  0  0  0  0  0
    2.2022    0.9340    0.0319 C   0  0  0  0  0  0  0  0  0  0  0  0
    2.3663   -0.4492   -0.0043 C   0  0  0  0  0  0  0  0  0  0  0  0
    1.2466   -1.2784   -0.0156 C   0  0  0  0  0  0  0  0  0  0  0  0
   -0.0181   -0.7263    0.0089 C   0  0  0  0  0  0  0  0  0  0  0  0
    3.7286   -1.0370   -0.0311 C   0  0  0  0  0  0  0  0  0  0  0  0
    4.8483   -0.2078   -0.0144 C   0  0  0  0  0  0  0  0  0  0  0  0
    6.1130   -0.7599   -0.0390 C   0  0  0  0  0  0  0  0  0  0  0  0
    6.2701   -2.1336   -0.0806 C   0  0  0  0  0  0  0  0  0  0  0  0
    5.1620   -2.9613   -0.0978 C   0  0  0  0  0  0  0  0  0  0  0  0
    3.8927   -2.4202   -0.0672 C   0  0  0  0  0  0  0  0  0  0  0  0
    7.6536   -2.7305   -0.1077 C   0  0  0  0  0  0  0  0  0  0  0  0
    8.1318   -2.9750    1.3249 C   0  0  1  0  0  0  0  0  0  0  0  0
    7.4028   -3.5913    1.8510 H   0  0  0  0  0  0  0  0  0  0  0  0
    9.4615   -3.6836    1.2966 C   0  0  0  0  0  0  0  0  0  0  0  0
   10.4729   -3.0958    1.6399 O   0  0  0  0  0  0  0  0  0  0  0  0
    9.5258   -4.8448    0.9303 O   0  0  0  0  0  1  0  0  0  0  0  0
    8.2768   -1.6920    2.0170 N   0  0  0  0  0  0  0  0  0  0  0  0
    8.1886   -1.6375    3.3608 C   0  0  0  0  0  0  0  0  0  0  0  0
    7.9892   -2.6505    3.9970 O   0  0  0  0  0  0  0  0  0  0  0  0
    8.3378   -0.3176    4.0727 C   0  0  2  0  0  0  0  0  0  0  0  0
    7.8268    0.4607    3.5060 H   0  0  0  0  0  0  0  0  0  0  0  0
    9.8225    0.0313    4.1942 C   0  0  0  0  0  0  0  0  0  0  0  0
   10.5160   -1.0094    5.0350 C   0  0  0  0  0  0  0  0  0  0  0  0
   11.2055   -2.1068    4.6380 C   0  0  0  0  0  0  0  0  0  0  0  0
   11.7647   -2.9303    5.5969 C   0  0  0  0  0  0  0  0  0  0  0  0
   11.6071   -2.6163    6.9060 C   0  0  0  0  0  0  0  0  0  0  0  0
   10.6492   -1.1126    6.8123 S   0  0  0  0  0  0  0  0  0  0  0  0
    7.7464   -0.4151    5.4139 N   0  3  0  0  0  0  0  0  0  0  0  0
    7.7678    0.9060    6.0557 C   0  0  0  0  0  0  0  0  0  0  0  0
    6.8883    0.8213    7.6503 P   0  0  0  0  0  0  0  0  0  0  0  0
    5.4431    0.2619    7.4205 O   0  0  0  0  0  0  0  0  0  0  0  0
    7.6660   -0.1262    8.6260 O   0  0  0  0  0  1  0  0  0  0  0  0
    6.7999    2.2554    8.2748 O   0  0  0  0  0  1  0  0  0  0  0  0
   -1.1666    1.0751    0.0685 H   0  0  0  0  0  0  0  0  0  0  0  0
    0.8045    2.5473    0.0839 H   0  0  0  0  0  0  0  0  0  0  0  0
    3.0667    1.5814    0.0404 H   0  0  0  0  0  0  0  0  0  0  0  0
    1.3682   -2.3512   -0.0439 H   0  0  0  0  0  0  0  0  0  0  0  0
   -0.8866   -1.3682    0.0005 H   0  0  0  0  0  0  0  0  0  0  0  0
    4.7268    0.8648    0.0174 H   0  0  0  0  0  0  0  0  0  0  0  0
    6.9816   -0.1182   -0.0260 H   0  0  0  0  0  0  0  0  0  0  0  0
    5.2904   -4.0332   -0.1306 H   0  0  0  0  0  0  0  0  0  0  0  0
    3.0283   -3.0675   -0.0761 H   0  0  0  0  0  0  0  0  0  0  0  0
    7.6307   -3.6760   -0.6495 H   0  0  0  0  0  0  0  0  0  0  0  0
    8.3364   -2.0425   -0.6063 H   0  0  0  0  0  0  0  0  0  0  0  0
    8.4363   -0.8817    1.5081 H   0  0  0  0  0  0  0  0  0  0  0  0
   10.2724    0.0554    3.2017 H   0  0  0  0  0  0  0  0  0  0  0  0
    9.9286    1.0086    4.6651 H   0  0  0  0  0  0  0  0  0  0  0  0
   11.3160   -2.3344    3.5880 H   0  0  0  0  0  0  0  0  0  0  0  0
   12.3187   -3.8111    5.3074 H   0  0  0  0  0  0  0  0  0  0  0  0
   11.9702   -3.1381    7.7791 H   0  0  0  0  0  0  0  0  0  0  0  0
    6.7930   -0.7370    5.3385 H   0  0  0  0  0  0  0  0  0  0  0  0
    8.8005    1.2105    6.2261 H   0  0  0  0  0  0  0  0  0  0  0  0
    7.2769    1.6326    5.4082 H   0  0  0  0  0  0  0  0  0  0  0  0
    8.2787   -1.0677    5.9696 H   0  0  0  0  0  0  0  0  0  0  0  0
  1  6  2  0  0  0  0
  1  2  1  0  0  0  0
  1 36  1  0  0  0  0
  2  3  2  0  0  0  0
  2 37  1  0  0  0  0
  3  4  1  0  0  0  0
  3 38  1  0  0  0  0
  4  5  2  0  0  0  0
  4  7  1  0  0  0  0
  5  6  1  0  0  0  0
  5 39  1  0  0  0  0
  6 40  1  0  0  0  0
  7 12  2  0  0  0  0
  7  8  1  0  0  0  0
  8  9  2  0  0  0  0
  8 41  1  0  0  0  0
  9 10  1  0  0  0  0
  9 42  1  0  0  0  0
 10 11  2  0  0  0  0
 10 13  1  0  0  0  0
 11 12  1  0  0  0  0
 11 43  1  0  0  0  0
 12 44  1  0  0  0  0
 13 14  1  0  0  0  0
 13 45  1  0  0  0  0
 13 46  1  0  0  0  0
 14 15  1  1  0  0  0
 14 16  1  0  0  0  0
 14 19  1  0  0  0  0
 16 17  2  0  0  0  0
 16 18  1  0  0  0  0
 19 20  1  0  0  0  0
 19 47  1  0  0  0  0
 20 21  2  0  0  0  0
 20 22  1  0  0  0  0
 22 23  1  6  0  0  0
 22 24  1  0  0  0  0
 22 30  1  0  0  0  0
 24 25  1  0  0  0  0
 24 48  1  0  0  0  0
 24 49  1  0  0  0  0
 25 29  1  0  0  0  0
 25 26  2  0  0  0  0
 26 27  1  0  0  0  0
 26 50  1  0  0  0  0
 27 28  2  0  0  0  0
 27 51  1  0  0  0  0
 28 29  1  0  0  0  0
 28 52  1  0  0  0  0
 30 31  1  0  0  0  0
 30 53  1  0  0  0  0
 30 56  1  0  0  0  0
 31 32  1  0  0  0  0
 31 54  1  0  0  0  0
 31 55  1  0  0  0  0
 32 33  2  0  0  0  0
 32 34  1  0  0  0  0
 32 35  1  0  0  0  0
M  CHG  1  30   1
M  END
$$$$
CHEMBL321012
 OpenBabel01252620473D

 32 33  0  0  1  0  0  0  0  0999 V2000
    0.0704   -0.2850    1.5348 C   0  0  0  0  0  0  0  0  0  0  0  0
    1.0463   -0.0908    0.3478 C   0  0  0  0  0  0  0  0  0  0  0  0
    2.1394    0.8439    0.9058 C   0  0  1  0  0  0  0  0  0  0  0  0
    2.1254    0.6728    2.4349 C   0  0  1  0  0  0  0  0  0  0  0  0
    1.0242   -0.3598    2.7528 C   0  0  0  0  0  0  0  0  0  0  0  0
    3.7346    0.0611    3.0065 S   0  0  0  0  0  0  0  0  0  0  0  0
    3.4856    0.4504    0.3546 C   0  0  0  0  0  0  0  0  0  0  0  0
    3.7216   -0.7123    0.1030 O   0  0  0  0  0  0  0  0  0  0  0  0
    4.4274    1.3906    0.1414 N   0  0  0  0  0  0  0  0  0  0  0  0
    4.2776    2.8328    0.4079 C   0  0  0  0  0  0  0  0  0  0  0  0
    5.7236    3.3519    0.6056 C   0  0  0  0  0  0  0  0  0  0  0  0
    6.5029    2.5077   -0.4372 C   0  0  0  0  0  0  0  0  0  0  0  0
    5.7766    1.1470   -0.3896 C   0  0  2  0  0  0  0  0  0  0  0  0
    5.6842    0.5695   -1.7785 C   0  0  0  0  0  0  0  0  0  0  0  0
    4.7423    0.8575   -2.4970 O   0  0  0  0  0  0  0  0  0  0  0  0
    6.5514   -0.1857   -2.1836 O   0  0  0  0  0  1  0  0  0  0  0  0
   -0.6039    0.5667    1.6239 H   0  0  0  0  0  0  0  0  0  0  0  0
   -0.4905   -1.2133    1.4258 H   0  0  0  0  0  0  0  0  0  0  0  0
    1.4775   -1.0460    0.0483 H   0  0  0  0  0  0  0  0  0  0  0  0
    0.5356    0.3787   -0.4930 H   0  0  0  0  0  0  0  0  0  0  0  0
    1.9159    1.8780    0.6437 H   0  0  0  0  0  0  0  0  0  0  0  0
    1.8951    1.6240    2.9149 H   0  0  0  0  0  0  0  0  0  0  0  0
    0.4975   -0.0866    3.6672 H   0  0  0  0  0  0  0  0  0  0  0  0
    1.4520   -1.3584    2.8417 H   0  0  0  0  0  0  0  0  0  0  0  0
    3.5885   -0.0426    4.3395 H   0  0  0  0  0  0  0  0  0  0  0  0
    3.8093    3.3290   -0.4422 H   0  0  0  0  0  0  0  0  0  0  0  0
    3.6903    2.9925    1.3121 H   0  0  0  0  0  0  0  0  0  0  0  0
    5.7917    4.4155    0.3767 H   0  0  0  0  0  0  0  0  0  0  0  0
    6.0772    3.1480    1.6162 H   0  0  0  0  0  0  0  0  0  0  0  0
    6.4281    2.9545   -1.4286 H   0  0  0  0  0  0  0  0  0  0  0  0
    7.5460    2.3961   -0.1411 H   0  0  0  0  0  0  0  0  0  0  0  0
    6.3141    0.4605    0.2646 H   0  0  0  0  0  0  0  0  0  0  0  0
  1  5  1  0  0  0  0
  1  2  1  0  0  0  0
  1 17  1  0  0  0  0
  1 18  1  0  0  0  0
  2  3  1  0  0  0  0
  2 19  1  0  0  0  0
  2 20  1  0  0  0  0
  3  4  1  0  0  0  0
  3  7  1  0  0  0  0
  3 21  1  6  0  0  0
  4  5  1  0  0  0  0
  4  6  1  0  0  0  0
  4 22  1  1  0  0  0
  5 23  1  0  0  0  0
  5 24  1  0  0  0  0
  6 25  1  0  0  0  0
  7  8  2  0  0  0  0
  7  9  1  0  0  0  0
  9 13  1  0  0  0  0
  9 10  1  0  0  0  0
 10 11  1  0  0  0  0
 10 26  1  0  0  0  0
 10 27  1  0  0  0  0
 11 12  1  0  0  0  0
 11 28  1  0  0  0  0
 11 29  1  0  0  0  0
 12 13  1  0  0  0  0
 12 30  1  0  0  0  0
 12 31  1  0  0  0  0
 13 14  1  0  0  0  0
 13 32  1  1  0  0  0
 14 15  2  0  0  0  0
 14 16  1  0  0  0  0
M  END
$$$$
CHEMBL325055
 OpenBabel01252620473D

 53 55  0  0  1  0  0  0  0  0999 V2000
    0.9272   -0.2555   -0.0062 C   0  0  0  0  0  0  0  0  0  0  0  0
    0.4483   -0.9814   -1.2650 C   0  0  1  0  0  0  0  0  0  0  0  0
    0.4558   -0.2904   -2.1079 H   0  0  0  0  0  0  0  0  0  0  0  0
    1.3669   -2.1398   -1.5570 C   0  0  0  0  0  0  0  0  0  0  0  0
    0.9292   -3.2657   -1.5855 O   0  0  0  0  0  0  0  0  0  0  0  0
    2.6714   -1.9210   -1.7853 O   0  0  0  0  0  0  0  0  0  0  0  0
    3.4837   -3.0652   -2.0554 C   0  0  0  0  0  0  0  0  0  0  0  0
    4.9074   -2.6277   -2.2848 C   0  0  0  0  0  0  0  0  0  0  0  0
    5.3345   -2.3047   -3.5592 C   0  0  0  0  0  0  0  0  0  0  0  0
    6.6404   -1.9034   -3.7696 C   0  0  0  0  0  0  0  0  0  0  0  0
    7.5193   -1.8247   -2.7055 C   0  0  0  0  0  0  0  0  0  0  0  0
    7.0920   -2.1469   -1.4309 C   0  0  0  0  0  0  0  0  0  0  0  0
    5.7848   -2.5440   -1.2198 C   0  0  0  0  0  0  0  0  0  0  0  0
   -0.9132   -1.4791   -1.0536 N   0  0  0  0  0  0  0  0  0  0  0  0
   -1.9683   -0.6703   -1.2751 C   0  0  0  0  0  0  0  0  0  0  0  0
   -1.7906    0.4695   -1.6494 O   0  0  0  0  0  0  0  0  0  0  0  0
   -3.3689   -1.1822   -1.0576 C   0  0  2  0  0  0  0  0  0  0  0  0
   -3.3279   -2.2058   -0.6851 H   0  0  0  0  0  0  0  0  0  0  0  0
   -4.1344   -1.1518   -2.3820 C   0  0  0  0  0  0  0  0  0  0  0  0
   -3.5071   -2.1243   -3.3473 C   0  0  0  0  0  0  0  0  0  0  0  0
   -2.5387   -1.6894   -4.2329 C   0  0  0  0  0  0  0  0  0  0  0  0
   -1.9599   -2.5778   -5.1199 C   0  0  0  0  0  0  0  0  0  0  0  0
   -2.3500   -3.9072   -5.1236 C   0  0  0  0  0  0  0  0  0  0  0  0
   -3.3256   -4.3453   -4.2315 C   0  0  0  0  0  0  0  0  0  0  0  0
   -3.8972   -3.4505   -3.3414 C   0  0  0  0  0  0  0  0  0  0  0  0
   -3.5316   -5.6798   -4.4310 O   0  0  0  0  0  0  0  0  0  0  0  0
   -2.9698   -5.9662   -5.7255 C   0  0  0  0  0  0  0  0  0  0  0  0
   -1.9447   -4.9673   -5.8820 O   0  0  0  0  0  0  0  0  0  0  0  0
   -4.0830   -0.2957   -0.0353 C   0  0  0  0  0  0  0  0  0  0  0  0
   -5.7086   -1.0036    0.3481 S   0  0  0  0  0  0  0  0  0  0  0  0
   -6.3554    0.0518    1.4541 C   0  0  0  0  0  0  0  0  0  0  0  0
   -5.7182    1.0349    1.8069 O   0  0  0  0  0  0  0  0  0  0  0  0
   -7.4696   -0.1534    1.9165 O   0  0  0  0  0  1  0  0  0  0  0  0
    1.9402    0.1148   -0.1635 H   0  0  0  0  0  0  0  0  0  0  0  0
    0.2628    0.5824    0.2050 H   0  0  0  0  0  0  0  0  0  0  0  0
    0.9197   -0.9465    0.8368 H   0  0  0  0  0  0  0  0  0  0  0  0
    3.4454   -3.7467   -1.2056 H   0  0  0  0  0  0  0  0  0  0  0  0
    3.1117   -3.5729   -2.9454 H   0  0  0  0  0  0  0  0  0  0  0  0
    4.6479   -2.3662   -4.3906 H   0  0  0  0  0  0  0  0  0  0  0  0
    6.9743   -1.6518   -4.7654 H   0  0  0  0  0  0  0  0  0  0  0  0
    8.5398   -1.5119   -2.8699 H   0  0  0  0  0  0  0  0  0  0  0  0
    7.7787   -2.0857   -0.5995 H   0  0  0  0  0  0  0  0  0  0  0  0
    5.4500   -2.7921   -0.2235 H   0  0  0  0  0  0  0  0  0  0  0  0
   -1.0554   -2.3907   -0.7542 H   0  0  0  0  0  0  0  0  0  0  0  0
   -5.1733   -1.4319   -2.2077 H   0  0  0  0  0  0  0  0  0  0  0  0
   -4.0947   -0.1466   -2.8016 H   0  0  0  0  0  0  0  0  0  0  0  0
   -2.2339   -0.6533   -4.2320 H   0  0  0  0  0  0  0  0  0  0  0  0
   -1.2036   -2.2353   -5.8106 H   0  0  0  0  0  0  0  0  0  0  0  0
   -4.6507   -3.7884   -2.6454 H   0  0  0  0  0  0  0  0  0  0  0  0
   -2.5361   -6.9660   -5.7422 H   0  0  0  0  0  0  0  0  0  0  0  0
   -3.7269   -5.8630   -6.5029 H   0  0  0  0  0  0  0  0  0  0  0  0
   -3.4872   -0.2393    0.8757 H   0  0  0  0  0  0  0  0  0  0  0  0
   -4.2107    0.7048   -0.4485 H   0  0  0  0  0  0  0  0  0  0  0  0
  1  2  1  0  0  0  0
  1 34  1  0  0  0  0
  1 35  1  0  0  0  0
  1 36  1  0  0  0  0
  2  3  1  6  0  0  0
  2  4  1  0  0  0  0
  2 14  1  0  0  0  0
  4  5  2  0  0  0  0
  4  6  1  0  0  0  0
  6  7  1  0  0  0  0
  7  8  1  0  0  0  0
  7 37  1  0  0  0  0
  7 38  1  0  0  0  0
  8 13  2  0  0  0  0
  8  9  1  0  0  0  0
  9 10  2  0  0  0  0
  9 39  1  0  0  0  0
 10 11  1  0  0  0  0
 10 40  1  0  0  0  0
 11 12  2  0  0  0  0
 11 41  1  0  0  0  0
 12 13  1  0  0  0  0
 12 42  1  0  0  0  0
 13 43  1  0  0  0  0
 14 15  1  0  0  0  0
 14 44  1  0  0  0  0
 15 16  2  0  0  0  0
 15 17  1  0  0  0  0
 17 18  1  1  0  0  0
 17 19  1  0  0  0  0
 17 29  1  0  0  0  0
 19 20  1  0  0  0  0
 19 45  1  0  0  0  0
 19 46  1  0  0  0  0
 20 25  2  0  0  0  0
 20 21  1  0  0  0  0
 21 22  2  0  0  0  0
 21 47  1  0  0  0  0
 22 23  1  0  0  0  0
 22 48  1  0  0  0  0
 23 28  1  0  0  0  0
 23 24  2  0  0  0  0
 24 25  1  0  0  0  0
 24 26  1  0  0  0  0
 25 49  1  0  0  0  0
 26 27  1  0  0  0  0
 27 28  1  0  0  0  0
 27 50  1  0  0  0  0
 27 51  1  0  0  0  0
 29 30  1  0  0  0  0
 29 52  1  0  0  0  0
 29 53  1  0  0  0  0
 30 31  1  0  0  0  0
 31 32  2  0  0  0  0
 31 33  1  0  0  0  0
M  END
$$$$
CHEMBL441233
 OpenBabel01252620473D

 49 51  0  0  1  0  0  0  0  0999 V2000
   -0.0167    1.3781    0.0096 C   0  0  0  0  0  0  0  0  0  0  0  0
    1.1709    2.0855    0.0021 C   0  0  0  0  0  0  0  0  0  0  0  0
    2.3773    1.4107   -0.0130 C   0  0  0  0  0  0  0  0  0  0  0  0
    2.3960    0.0285   -0.0201 C   0  0  0  0  0  0  0  0  0  0  0  0
    1.2084   -0.6789   -0.0117 C   0  0  0  0  0  0  0  0  0  0  0  0
    0.0021   -0.0041    0.0020 C   0  0  0  0  0  0  0  0  0  0  0  0
    3.7112   -0.7071   -0.0376 C   0  0  0  0  0  0  0  0  0  0  0  0
    4.1530   -0.9531    1.3416 N   0  3  0  0  0  0  0  0  0  0  0  0
    5.4350   -1.6702    1.3246 C   0  0  2  0  0  0  0  0  0  0  0  0
    5.3349   -2.5793    0.7317 H   0  0  0  0  0  0  0  0  0  0  0  0
    5.8337   -2.0360    2.7557 C   0  0  0  0  0  0  0  0  0  0  0  0
    4.8216   -3.0299    3.3289 C   0  0  0  0  0  0  0  0  0  0  0  0
    5.2143   -3.3903    4.7385 C   0  0  0  0  0  0  0  0  0  0  0  0
    6.2062   -2.9004    5.2357 O   0  0  0  0  0  0  0  0  0  0  0  0
    4.4634   -4.2570    5.4466 N   0  0  0  0  0  0  0  0  0  0  0  0
    3.3067   -4.8861    4.9758 C   0  0  0  0  0  0  0  0  0  0  0  0
    2.6836   -4.7762    3.7310 C   0  0  0  0  0  0  0  0  0  0  0  0
    1.5358   -5.4906    3.4628 C   0  0  0  0  0  0  0  0  0  0  0  0
    0.9928   -6.3225    4.4249 C   0  0  0  0  0  0  0  0  0  0  0  0
    1.6039   -6.4366    5.6595 C   0  0  0  0  0  0  0  0  0  0  0  0
    2.7545   -5.7219    5.9330 C   0  0  0  0  0  0  0  0  0  0  0  0
    3.6117   -5.6611    7.1773 C   0  0  0  0  0  0  0  0  0  0  0  0
    4.7429   -4.6829    6.8206 C   0  0  1  0  0  0  0  0  0  0  0  0
    4.7250   -3.8255    7.4933 H   0  0  0  0  0  0  0  0  0  0  0  0
    6.0789   -5.3766    6.8913 C   0  0  0  0  0  0  0  0  0  0  0  0
    6.5716   -5.6416    7.9746 O   0  0  0  0  0  0  0  0  0  0  0  0
    6.6672   -5.6726    5.8653 O   0  0  0  0  0  1  0  0  0  0  0  0
    6.4957   -0.7886    0.7174 C   0  0  0  0  0  0  0  0  0  0  0  0
    6.2606    0.3883    0.5025 O   0  0  0  0  0  0  0  0  0  0  0  0
    7.5889   -1.2522    0.4410 O   0  0  0  0  0  1  0  0  0  0  0  0
   -0.9591    1.9053    0.0259 H   0  0  0  0  0  0  0  0  0  0  0  0
    1.1563    3.1654    0.0076 H   0  0  0  0  0  0  0  0  0  0  0  0
    3.3051    1.9634   -0.0196 H   0  0  0  0  0  0  0  0  0  0  0  0
    1.2231   -1.7588   -0.0176 H   0  0  0  0  0  0  0  0  0  0  0  0
   -0.9258   -0.5567    0.0082 H   0  0  0  0  0  0  0  0  0  0  0  0
    3.5884   -1.6586   -0.5549 H   0  0  0  0  0  0  0  0  0  0  0  0
    4.4573   -0.1052   -0.5563 H   0  0  0  0  0  0  0  0  0  0  0  0
    4.2667   -0.0723    1.8205 H   0  0  0  0  0  0  0  0  0  0  0  0
    6.8253   -2.4886    2.7522 H   0  0  0  0  0  0  0  0  0  0  0  0
    5.8473   -1.1360    3.3705 H   0  0  0  0  0  0  0  0  0  0  0  0
    3.8300   -2.5774    3.3325 H   0  0  0  0  0  0  0  0  0  0  0  0
    4.8080   -3.9299    2.7142 H   0  0  0  0  0  0  0  0  0  0  0  0
    3.1027   -4.1283    2.9754 H   0  0  0  0  0  0  0  0  0  0  0  0
    1.0591   -5.4008    2.4978 H   0  0  0  0  0  0  0  0  0  0  0  0
    0.0937   -6.8818    4.2121 H   0  0  0  0  0  0  0  0  0  0  0  0
    1.1810   -7.0855    6.4121 H   0  0  0  0  0  0  0  0  0  0  0  0
    3.0319   -5.2857    8.0205 H   0  0  0  0  0  0  0  0  0  0  0  0
    4.0219   -6.6450    7.4048 H   0  0  0  0  0  0  0  0  0  0  0  0
    3.4623   -1.5103    1.8218 H   0  0  0  0  0  0  0  0  0  0  0  0
  1  6  2  0  0  0  0
  1  2  1  0  0  0  0
  1 31  1  0  0  0  0
  2  3  2  0  0  0  0
  2 32  1  0  0  0  0
  3  4  1  0  0  0  0
  3 33  1  0  0  0  0
  4  5  2  0  0  0  0
  4  7  1  0  0  0  0
  5  6  1  0  0  0  0
  5 34  1  0  0  0  0
  6 35  1  0  0  0  0
  7  8  1  0  0  0  0
  7 36  1  0  0  0  0
  7 37  1  0  0  0  0
  8  9  1  0  0  0  0
  8 38  1  0  0  0  0
  8 49  1  0  0  0  0
  9 10  1  6  0  0  0
  9 11  1  0  0  0  0
  9 28  1  0  0  0  0
 11 12  1  0  0  0  0
 11 39  1  0  0  0  0
 11 40  1  0  0  0  0
 12 13  1  0  0  0  0
 12 41  1  0  0  0  0
 12 42  1  0  0  0  0
 13 14  2  0  0  0  0
 13 15  1  0  0  0  0
 15 23  1  0  0  0  0
 15 16  1  0  0  0  0
 16 21  2  0  0  0  0
 16 17  1  0  0  0  0
 17 18  2  0  0  0  0
 17 43  1  0  0  0  0
 18 19  1  0  0  0  0
 18 44  1  0  0  0  0
 19 20  2  0  0  0  0
 19 45  1  0  0  0  0
 20 21  1  0  0  0  0
 20 46  1  0  0  0  0
 21 22  1  0  0  0  0
 22 23  1  0  0  0  0
 22 47  1  0  0  0  0
 22 48  1  0  0  0  0
 23 24  1  1  0  0  0
 23 25  1  0  0  0  0
 25 26  2  0  0  0  0
 25 27  1  0  0  0  0
 28 29  2  0  0  0  0
 28 30  1  0  0  0  0
M  CHG  1   8   1
M  END
$$$$
CHEMBL287261
 OpenBabel01252620473D

 51 54  0  0  1  0  0  0  0  0999 V2000
    0.0092    1.3062   -0.6582 C   0  0  0  0  0  0  0  0  0  0  0  0
    1.1941    2.0400   -0.6693 C   0  0  0  0  0  0  0  0  0  0  0  0
    2.3958    1.4335   -0.4693 C   0  0  0  0  0  0  0  0  0  0  0  0
    2.4464    0.0466   -0.2475 C   0  0  0  0  0  0  0  0  0  0  0  0
    1.2413   -0.6996   -0.2358 C   0  0  0  0  0  0  0  0  0  0  0  0
    0.0193   -0.0381   -0.4466 C   0  0  0  0  0  0  0  0  0  0  0  0
    1.2918   -2.0861   -0.0136 C   0  0  0  0  0  0  0  0  0  0  0  0
    2.4938   -2.6927    0.1869 C   0  0  0  0  0  0  0  0  0  0  0  0
    3.6783   -1.9592    0.1758 C   0  0  0  0  0  0  0  0  0  0  0  0
    3.6681   -0.6146   -0.0367 C   0  0  0  0  0  0  0  0  0  0  0  0
    4.9603    0.1606   -0.0459 C   0  0  1  0  0  0  0  0  0  0  0  0
    5.7242   -0.1059    1.2527 C   0  0  0  0  0  0  0  0  0  0  0  0
    7.2061    0.9389    1.3079 S   0  0  0  0  0  0  0  0  0  0  0  0
    5.7987   -0.2743   -1.2202 C   0  0  0  0  0  0  0  0  0  0  0  0
    5.3874   -1.1296   -1.9753 O   0  0  0  0  0  0  0  0  0  0  0  0
    7.0057    0.2872   -1.4313 N   0  0  0  0  0  0  0  0  0  0  0  0
    7.8207   -0.1357   -2.5729 C   0  0  1  0  0  0  0  0  0  0  0  0
    8.7760    0.9937   -2.9636 C   0  0  0  0  0  0  0  0  0  0  0  0
    7.9816    2.1755   -3.4569 C   0  0  0  0  0  0  0  0  0  0  0  0
    7.6827    2.4596   -4.7343 C   0  0  0  0  0  0  0  0  0  0  0  0
    6.9472    3.6118   -4.7964 N   0  0  0  0  0  0  0  0  0  0  0  0
    6.6144    4.0172   -5.6123 H   0  0  0  0  0  0  0  0  0  0  0  0
    6.7499    4.1100   -3.5280 C   0  0  0  0  0  0  0  0  0  0  0  0
    7.3837    3.2288   -2.6328 C   0  0  0  0  0  0  0  0  0  0  0  0
    7.3431    3.4815   -1.2605 C   0  0  0  0  0  0  0  0  0  0  0  0
    6.6837    4.5833   -0.7928 C   0  0  0  0  0  0  0  0  0  0  0  0
    6.0534    5.4534   -1.6714 C   0  0  0  0  0  0  0  0  0  0  0  0
    6.0889    5.2280   -3.0304 C   0  0  0  0  0  0  0  0  0  0  0  0
    8.6163   -1.3589   -2.1964 C   0  0  0  0  0  0  0  0  0  0  0  0
    8.9125   -2.1794   -3.0482 O   0  0  0  0  0  0  0  0  0  0  0  0
    8.9638   -1.5280   -1.0401 O   0  0  0  0  0  1  0  0  0  0  0  0
   -0.9316    1.8127   -0.8155 H   0  0  0  0  0  0  0  0  0  0  0  0
    1.1580    3.1059   -0.8395 H   0  0  0  0  0  0  0  0  0  0  0  0
    3.3059    2.0149   -0.4813 H   0  0  0  0  0  0  0  0  0  0  0  0
   -0.9068   -0.5937   -0.4404 H   0  0  0  0  0  0  0  0  0  0  0  0
    0.3816   -2.6673   -0.0016 H   0  0  0  0  0  0  0  0  0  0  0  0
    2.5298   -3.7585    0.3575 H   0  0  0  0  0  0  0  0  0  0  0  0
    4.6187   -2.4649    0.3379 H   0  0  0  0  0  0  0  0  0  0  0  0
    4.7444    1.2259   -0.1283 H   0  0  0  0  0  0  0  0  0  0  0  0
    5.0846    0.1254    2.1045 H   0  0  0  0  0  0  0  0  0  0  0  0
    6.0175   -1.1549    1.2929 H   0  0  0  0  0  0  0  0  0  0  0  0
    7.7861    0.6194    2.4786 H   0  0  0  0  0  0  0  0  0  0  0  0
    7.3347    0.9712   -0.8274 H   0  0  0  0  0  0  0  0  0  0  0  0
    7.1710   -0.3701   -3.4161 H   0  0  0  0  0  0  0  0  0  0  0  0
    9.3646    1.2887   -2.0949 H   0  0  0  0  0  0  0  0  0  0  0  0
    9.4426    0.6486   -3.7540 H   0  0  0  0  0  0  0  0  0  0  0  0
    7.9791    1.8667   -5.5870 H   0  0  0  0  0  0  0  0  0  0  0  0
    7.8307    2.8084   -0.5709 H   0  0  0  0  0  0  0  0  0  0  0  0
    6.6525    4.7784    0.2690 H   0  0  0  0  0  0  0  0  0  0  0  0
    5.5356    6.3196   -1.2866 H   0  0  0  0  0  0  0  0  0  0  0  0
    5.5943    5.9103   -3.7058 H   0  0  0  0  0  0  0  0  0  0  0  0
  1  6  2  0  0  0  0
  1  2  1  0  0  0  0
  1 32  1  0  0  0  0
  2  3  2  0  0  0  0
  2 33  1  0  0  0  0
  3  4  1  0  0  0  0
  3 34  1  0  0  0  0
  4 10  2  0  0  0  0
  4  5  1  0  0  0  0
  5  6  1  0  0  0  0
  5  7  2  0  0  0  0
  6 35  1  0  0  0  0
  7  8  1  0  0  0  0
  7 36  1  0  0  0  0
  8  9  2  0  0  0  0
  8 37  1  0  0  0  0
  9 10  1  0  0  0  0
  9 38  1  0  0  0  0
 10 11  1  0  0  0  0
 11 12  1  0  0  0  0
 11 14  1  0  0  0  0
 11 39  1  6  0  0  0
 12 13  1  0  0  0  0
 12 40  1  0  0  0  0
 12 41  1  0  0  0  0
 13 42  1  0  0  0  0
 14 15  2  0  0  0  0
 14 16  1  0  0  0  0
 16 17  1  0  0  0  0
 16 43  1  0  0  0  0
 17 18  1  0  0  0  0
 17 29  1  0  0  0  0
 17 44  1  6  0  0  0
 18 19  1  0  0  0  0
 18 45  1  0  0  0  0
 18 46  1  0  0  0  0
 19 24  1  0  0  0  0
 19 20  2  0  0  0  0
 20 21  1  0  0  0  0
 20 47  1  0  0  0  0
 21 22  1  0  0  0  0
 21 23  1  0  0  0  0
 23 28  2  0  0  0  0
 23 24  1  0  0  0  0
 24 25  2  0  0  0  0
 25 26  1  0  0  0  0
 25 48  1  0  0  0  0
 26 27  2  0  0  0  0
 26 49  1  0  0  0  0
 27 28  1  0  0  0  0
 27 50  1  0  0  0  0
 28 51  1  0  0  0  0
 29 30  2  0  0  0  0
 29 31  1  0  0  0  0
M  END
$$$$
CHEMBL289531
 OpenBabel01252620473D

 53 54  0  0  1  0  0  0  0  0999 V2000
   -0.0167    1.3781    0.0096 C   0  0  0  0  0  0  0  0  0  0  0  0
    1.1709    2.0855    0.0021 C   0  0  0  0  0  0  0  0  0  0  0  0
    2.3773    1.4107   -0.0130 C   0  0  0  0  0  0  0  0  0  0  0  0
    2.3960    0.0285   -0.0201 C   0  0  0  0  0  0  0  0  0  0  0  0
    1.2084   -0.6789   -0.0117 C   0  0  0  0  0  0  0  0  0  0  0  0
    0.0021   -0.0041    0.0020 C   0  0  0  0  0  0  0  0  0  0  0  0
    3.7112   -0.7071   -0.0376 C   0  0  0  0  0  0  0  0  0  0  0  0
    4.1410   -0.9464    1.3041 O   0  0  0  0  0  0  0  0  0  0  0  0
    5.3077   -1.5988    1.4650 C   0  0  0  0  0  0  0  0  0  0  0  0
    5.9435   -1.9553    0.4929 O   0  0  0  0  0  0  0  0  0  0  0  0
    5.7703   -1.8565    2.7044 N   0  0  0  0  0  0  0  0  0  0  0  0
    7.0397   -2.5664    2.8795 C   0  0  2  0  0  0  0  0  0  0  0  0
    7.1543   -3.3066    2.0876 H   0  0  0  0  0  0  0  0  0  0  0  0
    7.0482   -3.2685    4.2389 C   0  0  0  0  0  0  0  0  0  0  0  0
    5.9709   -4.3547    4.2586 C   0  0  0  0  0  0  0  0  0  0  0  0
    5.9792   -5.0462    5.5976 C   0  0  0  0  0  0  0  0  0  0  0  0
    6.7689   -4.7039    6.4520 O   0  0  0  0  0  0  0  0  0  0  0  0
    5.1089   -6.0450    5.8456 N   0  0  0  0  0  0  0  0  0  0  0  0
    4.1549   -6.4585    4.8136 C   0  0  0  0  0  0  0  0  0  0  0  0
    4.7695   -7.5432    3.9669 C   0  0  0  0  0  0  0  0  0  0  0  0
    5.8996   -7.9345    4.2036 O   0  0  0  0  0  0  0  0  0  0  0  0
    4.1365   -8.0293    3.0452 O   0  0  0  0  0  1  0  0  0  0  0  0
    5.1170   -6.7173    7.1473 C   0  0  0  0  0  0  0  0  0  0  0  0
    5.3386   -8.2322    6.9583 C   0  0  0  0  0  0  0  0  0  0  0  0
    4.4420   -8.8850    8.0394 C   0  0  0  0  0  0  0  0  0  0  0  0
    3.1868   -7.9775    8.0362 C   0  0  0  0  0  0  0  0  0  0  0  0
    3.7488   -6.5553    7.8326 C   0  0  0  0  0  0  0  0  0  0  0  0
    8.1789   -1.5819    2.8155 C   0  0  0  0  0  0  0  0  0  0  0  0
    8.0114   -0.4312    3.1821 O   0  0  0  0  0  0  0  0  0  0  0  0
    9.2679   -1.9360    2.3972 O   0  0  0  0  0  1  0  0  0  0  0  0
   -0.9591    1.9053    0.0259 H   0  0  0  0  0  0  0  0  0  0  0  0
    1.1563    3.1654    0.0076 H   0  0  0  0  0  0  0  0  0  0  0  0
    3.3051    1.9634   -0.0196 H   0  0  0  0  0  0  0  0  0  0  0  0
    1.2231   -1.7588   -0.0176 H   0  0  0  0  0  0  0  0  0  0  0  0
   -0.9258   -0.5567    0.0082 H   0  0  0  0  0  0  0  0  0  0  0  0
    3.5884   -1.6586   -0.5549 H   0  0  0  0  0  0  0  0  0  0  0  0
    4.4573   -0.1052   -0.5563 H   0  0  0  0  0  0  0  0  0  0  0  0
    5.2627   -1.5719    3.4805 H   0  0  0  0  0  0  0  0  0  0  0  0
    8.0248   -3.7223    4.4075 H   0  0  0  0  0  0  0  0  0  0  0  0
    6.8450   -2.5410    5.0248 H   0  0  0  0  0  0  0  0  0  0  0  0
    4.9942   -3.9010    4.0901 H   0  0  0  0  0  0  0  0  0  0  0  0
    6.1740   -5.0822    3.4727 H   0  0  0  0  0  0  0  0  0  0  0  0
    3.2487   -6.8366    5.2869 H   0  0  0  0  0  0  0  0  0  0  0  0
    3.9067   -5.6035    4.1847 H   0  0  0  0  0  0  0  0  0  0  0  0
    5.9021   -6.3001    7.7778 H   0  0  0  0  0  0  0  0  0  0  0  0
    5.0228   -8.5426    5.9623 H   0  0  0  0  0  0  0  0  0  0  0  0
    6.3849   -8.4883    7.1248 H   0  0  0  0  0  0  0  0  0  0  0  0
    4.1813   -9.9059    7.7601 H   0  0  0  0  0  0  0  0  0  0  0  0
    4.9322   -8.8629    9.0127 H   0  0  0  0  0  0  0  0  0  0  0  0
    2.5235   -8.2468    7.2143 H   0  0  0  0  0  0  0  0  0  0  0  0
    2.6628   -8.0478    8.9894 H   0  0  0  0  0  0  0  0  0  0  0  0
    3.8701   -6.0603    8.7961 H   0  0  0  0  0  0  0  0  0  0  0  0
    3.0789   -5.9766    7.1968 H   0  0  0  0  0  0  0  0  0  0  0  0
  1  6  2  0  0  0  0
  1  2  1  0  0  0  0
  1 31  1  0  0  0  0
  2  3  2  0  0  0  0
  2 32  1  0  0  0  0
  3  4  1  0  0  0  0
  3 33  1  0  0  0  0
  4  5  2  0  0  0  0
  4  7  1  0  0  0  0
  5  6  1  0  0  0  0
  5 34  1  0  0  0  0
  6 35  1  0  0  0  0
  7  8  1  0  0  0  0
  7 36  1  0  0  0  0
  7 37  1  0  0  0  0
  8  9  1  0  0  0  0
  9 10  2  0  0  0  0
  9 11  1  0  0  0  0
 11 12  1  0  0  0  0
 11 38  1  0  0  0  0
 12 13  1  6  0  0  0
 12 14  1  0  0  0  0
 12 28  1  0  0  0  0
 14 15  1  0  0  0  0
 14 39  1  0  0  0  0
 14 40  1  0  0  0  0
 15 16  1  0  0  0  0
 15 41  1  0  0  0  0
 15 42  1  0  0  0  0
 16 17  2  0  0  0  0
 16 18  1  0  0  0  0
 18 19  1  0  0  0  0
 18 23  1  0  0  0  0
 19 20  1  0  0  0  0
 19 43  1  0  0  0  0
 19 44  1  0  0  0  0
 20 21  2  0  0  0  0
 20 22  1  0  0  0  0
 23 27  1  0  0  0  0
 23 24  1  0  0  0  0
 23 45  1  0  0  0  0
 24 25  1  0  0  0  0
 24 46  1  0  0  0  0
 24 47  1  0  0  0  0
 25 26  1  0  0  0  0
 25 48  1  0  0  0  0
 25 49  1  0  0  0  0
 26 27  1  0  0  0  0
 26 50  1  0  0  0  0
 26 51  1  0  0  0  0
 27 52  1  0  0  0  0
 27 53  1  0  0  0  0
 28 29  2  0  0  0  0
 28 30  1  0  0  0  0
M  END
$$$$
CHEMBL558003
 OpenBabel01252620473D

 49 51  0  0  1  0  0  0  0  0999 V2000
   -0.0167    1.3781    0.0096 C   0  0  0  0  0  0  0  0  0  0  0  0
    1.1709    2.0855    0.0021 C   0  0  0  0  0  0  0  0  0  0  0  0
    2.3773    1.4107   -0.0130 C   0  0  0  0  0  0  0  0  0  0  0  0
    2.3960    0.0285   -0.0201 C   0  0  0  0  0  0  0  0  0  0  0  0
    1.2084   -0.6789   -0.0117 C   0  0  0  0  0  0  0  0  0  0  0  0
    0.0021   -0.0041    0.0020 C   0  0  0  0  0  0  0  0  0  0  0  0
    3.7112   -0.7071   -0.0376 C   0  0  0  0  0  0  0  0  0  0  0  0
    4.1714   -0.9633    1.3989 C   0  0  0  0  0  0  0  0  0  0  0  0
    5.5066   -1.7102    1.3812 C   0  0  1  0  0  0  0  0  0  0  0  0
    6.2284   -1.1499    0.7869 H   0  0  0  0  0  0  0  0  0  0  0  0
    6.0202   -1.8544    2.7906 C   0  0  0  0  0  0  0  0  0  0  0  0
    5.7155   -2.8312    3.4535 O   0  0  0  0  0  0  0  0  0  0  0  0
    6.7405   -0.9942    3.2679 O   0  0  0  0  0  1  0  0  0  0  0  0
    5.3150   -3.0418    0.7912 N   0  3  0  0  0  0  0  0  0  0  0  0
    6.6156   -3.7127    0.6641 C   0  0  2  0  0  0  0  0  0  0  0  0
    7.2961   -3.0786    0.0958 H   0  0  0  0  0  0  0  0  0  0  0  0
    6.4314   -5.0431   -0.0669 C   0  0  0  0  0  0  0  0  0  0  0  0
    5.7261   -6.0209    0.8366 C   0  0  0  0  0  0  0  0  0  0  0  0
    4.8521   -6.9496    0.3071 C   0  0  0  0  0  0  0  0  0  0  0  0
    4.2064   -7.8453    1.1394 C   0  0  0  0  0  0  0  0  0  0  0  0
    4.4335   -7.8141    2.5033 C   0  0  0  0  0  0  0  0  0  0  0  0
    5.3065   -6.8875    3.0388 C   0  0  0  0  0  0  0  0  0  0  0  0
    5.9570   -5.9872    2.2054 C   0  0  0  0  0  0  0  0  0  0  0  0
    6.8433   -5.0477    2.7408 N   0  0  0  0  0  0  0  0  0  0  0  0
    7.1876   -3.9578    2.0343 C   0  0  0  0  0  0  0  0  0  0  0  0
    7.9697   -3.1613    2.5086 O   0  0  0  0  0  0  0  0  0  0  0  0
    7.4000   -5.2535    4.0802 C   0  0  0  0  0  0  0  0  0  0  0  0
    8.6845   -6.0345    3.9758 C   0  0  0  0  0  0  0  0  0  0  0  0
    9.0969   -6.3866    2.8838 O   0  0  0  0  0  0  0  0  0  0  0  0
    9.3115   -6.3143    4.9834 O   0  0  0  0  0  1  0  0  0  0  0  0
   -0.9591    1.9053    0.0259 H   0  0  0  0  0  0  0  0  0  0  0  0
    1.1563    3.1654    0.0076 H   0  0  0  0  0  0  0  0  0  0  0  0
    3.3051    1.9634   -0.0196 H   0  0  0  0  0  0  0  0  0  0  0  0
    1.2231   -1.7588   -0.0176 H   0  0  0  0  0  0  0  0  0  0  0  0
   -0.9258   -0.5567    0.0082 H   0  0  0  0  0  0  0  0  0  0  0  0
    3.5884   -1.6586   -0.5549 H   0  0  0  0  0  0  0  0  0  0  0  0
    4.4573   -0.1052   -0.5563 H   0  0  0  0  0  0  0  0  0  0  0  0
    4.2941   -0.0118    1.9163 H   0  0  0  0  0  0  0  0  0  0  0  0
    3.4252   -1.5652    1.9176 H   0  0  0  0  0  0  0  0  0  0  0  0
    4.7108   -3.5892    1.3856 H   0  0  0  0  0  0  0  0  0  0  0  0
    5.8354   -4.8842   -0.9656 H   0  0  0  0  0  0  0  0  0  0  0  0
    7.4067   -5.4432   -0.3441 H   0  0  0  0  0  0  0  0  0  0  0  0
    4.6724   -6.9760   -0.7576 H   0  0  0  0  0  0  0  0  0  0  0  0
    3.5228   -8.5708    0.7235 H   0  0  0  0  0  0  0  0  0  0  0  0
    3.9273   -8.5150    3.1505 H   0  0  0  0  0  0  0  0  0  0  0  0
    5.4832   -6.8634    4.1040 H   0  0  0  0  0  0  0  0  0  0  0  0
    7.5989   -4.2871    4.5434 H   0  0  0  0  0  0  0  0  0  0  0  0
    6.6860   -5.8081    4.6891 H   0  0  0  0  0  0  0  0  0  0  0  0
    4.8943   -2.9480   -0.1211 H   0  0  0  0  0  0  0  0  0  0  0  0
  1  6  2  0  0  0  0
  1  2  1  0  0  0  0
  1 31  1  0  0  0  0
  2  3  2  0  0  0  0
  2 32  1  0  0  0  0
  3  4  1  0  0  0  0
  3 33  1  0  0  0  0
  4  5  2  0  0  0  0
  4  7  1  0  0  0  0
  5  6  1  0  0  0  0
  5 34  1  0  0  0  0
  6 35  1  0  0  0  0
  7  8  1  0  0  0  0
  7 36  1  0  0  0  0
  7 37  1  0  0  0  0
  8  9  1  0  0  0  0
  8 38  1  0  0  0  0
  8 39  1  0  0  0  0
  9 10  1  6  0  0  0
  9 11  1  0  0  0  0
  9 14  1  0  0  0  0
 11 12  2  0  0  0  0
 11 13  1  0  0  0  0
 14 15  1  0  0  0  0
 14 40  1  0  0  0  0
 14 49  1  0  0  0  0
 15 16  1  6  0  0  0
 15 25  1  0  0  0  0
 15 17  1  0  0  0  0
 17 18  1  0  0  0  0
 17 41  1  0  0  0  0
 17 42  1  0  0  0  0
 18 23  2  0  0  0  0
 18 19  1  0  0  0  0
 19 20  2  0  0  0  0
 19 43  1  0  0  0  0
 20 21  1  0  0  0  0
 20 44  1  0  0  0  0
 21 22  2  0  0  0  0
 21 45  1  0  0  0  0
 22 23  1  0  0  0  0
 22 46  1  0  0  0  0
 23 24  1  0  0  0  0
 24 25  1  0  0  0  0
 24 27  1  0  0  0  0
 25 26  2  0  0  0  0
 27 28  1  0  0  0  0
 27 47  1  0  0  0  0
 27 48  1  0  0  0  0
 28 29  2  0  0  0  0
 28 30  1  0  0  0  0
M  CHG  1  14   1
M  END
$$$$
CHEMBL109178
 OpenBabel01252620473D

 61 63  0  0  1  0  0  0  0  0999 V2000
   -0.0052    0.9366   -0.9627 C   0  0  0  0  0  0  0  0  0  0  0  0
    0.0248   -0.3955   -0.2106 C   0  0  2  0  0  0  0  0  0  0  0  0
   -1.3811   -0.9143   -0.0514 C   0  0  0  0  0  0  0  0  0  0  0  0
   -1.9153   -0.8941    1.0372 O   0  0  0  0  0  0  0  0  0  0  0  0
   -2.0448   -1.4007   -1.1189 N   0  0  0  0  0  0  0  0  0  0  0  0
   -1.4810   -1.5905   -2.4678 C   0  0  0  0  0  0  0  0  0  0  0  0
   -2.7044   -1.5557   -3.4174 C   0  0  0  0  0  0  0  0  0  0  0  0
   -3.7786   -2.2856   -2.5684 C   0  0  0  0  0  0  0  0  0  0  0  0
   -3.4491   -1.8358   -1.1293 C   0  0  1  0  0  0  0  0  0  0  0  0
   -3.6362   -2.9865   -0.1743 C   0  0  0  0  0  0  0  0  0  0  0  0
   -4.7590   -3.3739    0.1009 O   0  0  0  0  0  0  0  0  0  0  0  0
   -2.6648   -3.5300    0.3232 O   0  0  0  0  0  1  0  0  0  0  0  0
    0.6098   -0.2015    1.0786 O   0  0  0  0  0  0  0  0  0  0  0  0
    1.9421   -0.9660    1.5611 P   0  0  1  0  0  0  0  0  0  0  0  0
    3.0768   -0.7156    0.5428 O   0  0  0  0  0  0  0  0  0  0  0  0
    2.4444   -0.3380    3.1971 C   0  0  1  0  0  0  0  0  0  0  0  0
    1.2813   -0.4876    4.1799 C   0  0  0  0  0  0  0  0  0  0  0  0
    1.6907    0.0722    5.5436 C   0  0  0  0  0  0  0  0  0  0  0  0
    0.5890   -0.1786    6.5409 C   0  0  0  0  0  0  0  0  0  0  0  0
   -0.4152    0.7560    6.7111 C   0  0  0  0  0  0  0  0  0  0  0  0
   -1.4257    0.5260    7.6258 C   0  0  0  0  0  0  0  0  0  0  0  0
   -1.4323   -0.6389    8.3700 C   0  0  0  0  0  0  0  0  0  0  0  0
   -0.4287   -1.5740    8.1992 C   0  0  0  0  0  0  0  0  0  0  0  0
    0.5795   -1.3459    7.2813 C   0  0  0  0  0  0  0  0  0  0  0  0
    3.5950   -1.1042    3.6821 N   0  0  0  0  0  0  0  0  0  0  0  0
    4.8263   -0.5565    3.6615 C   0  0  0  0  0  0  0  0  0  0  0  0
    4.9821    0.5732    3.2406 O   0  0  0  0  0  0  0  0  0  0  0  0
    5.9876   -1.3296    4.1509 C   0  0  0  0  0  0  0  0  0  0  0  0
    5.8130   -2.6291    4.6295 C   0  0  0  0  0  0  0  0  0  0  0  0
    6.9009   -3.3453    5.0843 C   0  0  0  0  0  0  0  0  0  0  0  0
    8.1627   -2.7780    5.0671 C   0  0  0  0  0  0  0  0  0  0  0  0
    8.3425   -1.4902    4.5945 C   0  0  0  0  0  0  0  0  0  0  0  0
    7.2640   -0.7654    4.1310 C   0  0  0  0  0  0  0  0  0  0  0  0
    1.6603   -2.4821    1.6556 O   0  0  0  0  0  1  0  0  0  0  0  0
    1.0008    1.3544   -1.0020 H   0  0  0  0  0  0  0  0  0  0  0  0
   -0.3706    0.7733   -1.9765 H   0  0  0  0  0  0  0  0  0  0  0  0
   -0.6671    1.6311   -0.4453 H   0  0  0  0  0  0  0  0  0  0  0  0
    0.6169   -1.1172   -0.7734 H   0  0  0  0  0  0  0  0  0  0  0  0
   -0.7912   -0.7814   -2.7079 H   0  0  0  0  0  0  0  0  0  0  0  0
   -0.9755   -2.5538   -2.5355 H   0  0  0  0  0  0  0  0  0  0  0  0
   -3.0051   -0.5298   -3.6298 H   0  0  0  0  0  0  0  0  0  0  0  0
   -2.4990   -2.0998   -4.3393 H   0  0  0  0  0  0  0  0  0  0  0  0
   -4.7801   -1.9652   -2.8553 H   0  0  0  0  0  0  0  0  0  0  0  0
   -3.6763   -3.3666   -2.6636 H   0  0  0  0  0  0  0  0  0  0  0  0
   -4.0963   -1.0062   -0.8448 H   0  0  0  0  0  0  0  0  0  0  0  0
    2.7171    0.7141    3.1144 H   0  0  0  0  0  0  0  0  0  0  0  0
    0.4170    0.0615    3.8063 H   0  0  0  0  0  0  0  0  0  0  0  0
    1.0253   -1.5422    4.2820 H   0  0  0  0  0  0  0  0  0  0  0  0
    2.6035   -0.4199    5.8792 H   0  0  0  0  0  0  0  0  0  0  0  0
    1.8663    1.1446    5.4583 H   0  0  0  0  0  0  0  0  0  0  0  0
   -0.4100    1.6662    6.1296 H   0  0  0  0  0  0  0  0  0  0  0  0
   -2.2099    1.2565    7.7593 H   0  0  0  0  0  0  0  0  0  0  0  0
   -2.2215   -0.8183    9.0852 H   0  0  0  0  0  0  0  0  0  0  0  0
   -0.4337   -2.4839    8.7808 H   0  0  0  0  0  0  0  0  0  0  0  0
    1.3617   -2.0781    7.1452 H   0  0  0  0  0  0  0  0  0  0  0  0
    3.4708   -2.0056    4.0180 H   0  0  0  0  0  0  0  0  0  0  0  0
    4.8285   -3.0728    4.6441 H   0  0  0  0  0  0  0  0  0  0  0  0
    6.7672   -4.3509    5.4549 H   0  0  0  0  0  0  0  0  0  0  0  0
    9.0110   -3.3428    5.4246 H   0  0  0  0  0  0  0  0  0  0  0  0
    9.3301   -1.0530    4.5841 H   0  0  0  0  0  0  0  0  0  0  0  0
    7.4064    0.2380    3.7578 H   0  0  0  0  0  0  0  0  0  0  0  0
  1  2  1  0  0  0  0
  1 35  1  0  0  0  0
  1 36  1  0  0  0  0
  1 37  1  0  0  0  0
  2  3  1  0  0  0  0
  2 13  1  0  0  0  0
  2 38  1  6  0  0  0
  3  4  2  0  0  0  0
  3  5  1  0  0  0  0
  5  9  1  0  0  0  0
  5  6  1  0  0  0  0
  6  7  1  0  0  0  0
  6 39  1  0  0  0  0
  6 40  1  0  0  0  0
  7  8  1  0  0  0  0
  7 41  1  0  0  0  0
  7 42  1  0  0  0  0
  8  9  1  0  0  0  0
  8 43  1  0  0  0  0
  8 44  1  0  0  0  0
  9 10  1  0  0  0  0
  9 45  1  1  0  0  0
 10 11  2  0  0  0  0
 10 12  1  0  0  0  0
 13 14  1  0  0  0  0
 14 15  2  6  0  0  0
 14 16  1  0  0  0  0
 14 34  1  0  0  0  0
 16 17  1  0  0  0  0
 16 25  1  0  0  0  0
 16 46  1  6  0  0  0
 17 18  1  0  0  0  0
 17 47  1  0  0  0  0
 17 48  1  0  0  0  0
 18 19  1  0  0  0  0
 18 49  1  0  0  0  0
 18 50  1  0  0  0  0
 19 24  2  0  0  0  0
 19 20  1  0  0  0  0
 20 21  2  0  0  0  0
 20 51  1  0  0  0  0
 21 22  1  0  0  0  0
 21 52  1  0  0  0  0
 22 23  2  0  0  0  0
 22 53  1  0  0  0  0
 23 24  1  0  0  0  0
 23 54  1  0  0  0  0
 24 55  1  0  0  0  0
 25 26  1  0  0  0  0
 25 56  1  0  0  0  0
 26 27  2  0  0  0  0
 26 28  1  0  0  0  0
 28 33  2  0  0  0  0
 28 29  1  0  0  0  0
 29 30  2  0  0  0  0
 29 57  1  0  0  0  0
 30 31  1  0  0  0  0
 30 58  1  0  0  0  0
 31 32  2  0  0  0  0
 31 59  1  0  0  0  0
 32 33  1  0  0  0  0
 32 60  1  0  0  0  0
 33 61  1  0  0  0  0
M  END
$$$$
CHEMBL347633
 OpenBabel01252620473D

 35 35  0  0  1  0  0  0  0  0999 V2000
    0.3570    0.9711   -0.4878 C   0  0  0  0  0  0  0  0  0  0  0  0
    0.1284   -0.3286    0.2864 C   0  0  2  0  0  0  0  0  0  0  0  0
    0.9301   -1.4576   -0.3644 C   0  0  0  0  0  0  0  0  0  0  0  0
    2.7033   -1.1097   -0.2052 S   0  0  0  0  0  0  0  0  0  0  0  0
   -1.3379   -0.6758    0.2633 C   0  0  0  0  0  0  0  0  0  0  0  0
   -1.7667   -1.4412   -0.5741 O   0  0  0  0  0  0  0  0  0  0  0  0
   -2.1726   -0.1358    1.1733 N   0  0  0  0  0  0  0  0  0  0  0  0
   -3.5728   -0.5634    1.2275 C   0  0  0  0  0  0  0  0  0  0  0  0
   -3.7073   -1.7488    2.1854 C   0  0  2  0  0  0  0  0  0  0  0  0
   -5.1568   -2.2796    2.1616 C   0  0  0  0  0  0  0  0  0  0  0  0
   -5.4089   -2.6167    3.6565 C   0  0  0  0  0  0  0  0  0  0  0  0
   -4.5831   -1.5053    4.3520 C   0  0  0  0  0  0  0  0  0  0  0  0
   -3.4229   -1.3265    3.5242 O   0  0  0  0  0  0  0  0  0  0  0  0
   -1.6799    0.8788    2.1081 C   0  0  0  0  0  0  0  0  0  0  0  0
   -1.9740    2.2516    1.5604 C   0  0  0  0  0  0  0  0  0  0  0  0
   -2.5425    2.3714    0.4886 O   0  0  0  0  0  0  0  0  0  0  0  0
   -1.6434    3.2425    2.1892 O   0  0  0  0  0  1  0  0  0  0  0  0
    1.3857    1.3023   -0.3460 H   0  0  0  0  0  0  0  0  0  0  0  0
    0.1735    0.7994   -1.5484 H   0  0  0  0  0  0  0  0  0  0  0  0
   -0.3254    1.7376   -0.1204 H   0  0  0  0  0  0  0  0  0  0  0  0
    0.4550   -0.1992    1.3182 H   0  0  0  0  0  0  0  0  0  0  0  0
    0.6988   -2.4002    0.1316 H   0  0  0  0  0  0  0  0  0  0  0  0
    0.6671   -1.5284   -1.4199 H   0  0  0  0  0  0  0  0  0  0  0  0
    3.2956   -2.1572   -0.8059 H   0  0  0  0  0  0  0  0  0  0  0  0
   -4.1912    0.2616    1.5813 H   0  0  0  0  0  0  0  0  0  0  0  0
   -3.9004   -0.8619    0.2317 H   0  0  0  0  0  0  0  0  0  0  0  0
   -3.0174   -2.5405    1.8930 H   0  0  0  0  0  0  0  0  0  0  0  0
   -5.8463   -1.5093    1.8161 H   0  0  0  0  0  0  0  0  0  0  0  0
   -5.2322   -3.1746    1.5440 H   0  0  0  0  0  0  0  0  0  0  0  0
   -6.4670   -2.5337    3.9049 H   0  0  0  0  0  0  0  0  0  0  0  0
   -5.0251   -3.6059    3.9063 H   0  0  0  0  0  0  0  0  0  0  0  0
   -5.1588   -0.5810    4.4014 H   0  0  0  0  0  0  0  0  0  0  0  0
   -4.2888   -1.8226    5.3524 H   0  0  0  0  0  0  0  0  0  0  0  0
   -2.1765    0.7576    3.0708 H   0  0  0  0  0  0  0  0  0  0  0  0
   -0.6039    0.7620    2.2371 H   0  0  0  0  0  0  0  0  0  0  0  0
  1  2  1  0  0  0  0
  1 18  1  0  0  0  0
  1 19  1  0  0  0  0
  1 20  1  0  0  0  0
  2  3  1  0  0  0  0
  2  5  1  0  0  0  0
  2 21  1  1  0  0  0
  3  4  1  0  0  0  0
  3 22  1  0  0  0  0
  3 23  1  0  0  0  0
  4 24  1  0  0  0  0
  5  6  2  0  0  0  0
  5  7  1  0  0  0  0
  7  8  1  0  0  0  0
  7 14  1  0  0  0  0
  8  9  1  0  0  0  0
  8 25  1  0  0  0  0
  8 26  1  0  0  0  0
  9 13  1  0  0  0  0
  9 10  1  0  0  0  0
  9 27  1  6  0  0  0
 10 11  1  0  0  0  0
 10 28  1  0  0  0  0
 10 29  1  0  0  0  0
 11 12  1  0  0  0  0
 11 30  1  0  0  0  0
 11 31  1  0  0  0  0
 12 13  1  0  0  0  0
 12 32  1  0  0  0  0
 12 33  1  0  0  0  0
 14 15  1  0  0  0  0
 14 34  1  0  0  0  0
 14 35  1  0  0  0  0
 15 16  2  0  0  0  0
 15 17  1  0  0  0  0
M  END
$$$$
