ZINC46543302
 OpenBabel01252620473D

 40 41  0  0  0  0  0  0  0  0999 V2000
   -0.0187    1.5258    0.0104 C   0  0  0  0  0  0  0  0  0  0  0  0
    0.0021   -0.0041    0.0020 C   0  0  0  0  0  0  0  0  0  0  0  0
    0.6878   -0.4765   -1.2033 N   0  0  0  0  0  0  0  0  0  0  0  0
    1.1892   -2.0514   -1.3071 S   0  0  0  0  0  0  0  0  0  0  0  0
    1.7862   -2.2039   -2.5876 O   0  0  0  0  0  0  0  0  0  0  0  0
    1.8872   -2.3356   -0.1024 O   0  0  0  0  0  0  0  0  0  0  0  0
   -0.2558   -3.0596   -1.3018 C   0  0  0  0  0  0  0  0  0  0  0  0
   -0.7762   -3.5131   -0.1035 C   0  0  0  0  0  0  0  0  0  0  0  0
   -1.9086   -4.3035   -0.0958 C   0  0  0  0  0  0  0  0  0  0  0  0
   -2.5250   -4.6429   -1.2935 C   0  0  0  0  0  0  0  0  0  0  0  0
   -1.9996   -4.1857   -2.4954 C   0  0  0  0  0  0  0  0  0  0  0  0
   -0.8702   -3.3910   -2.4956 C   0  0  0  0  0  0  0  0  0  0  0  0
   -3.6702   -5.4426   -1.2893 N   0  0  0  0  0  2  0  0  0  0  0  0
   -4.4035   -5.8461   -2.7182 S   0  0  0  0  0  0  0  0  0  0  0  0
   -4.9141   -4.6392   -3.2677 O   0  0  0  0  0  0  0  0  0  0  0  0
   -3.4913   -6.6777   -3.4221 O   0  0  0  0  0  0  0  0  0  0  0  0
   -5.7975   -6.8490   -2.3233 C   0  0  0  0  0  0  0  0  0  0  0  0
   -5.6588   -8.2219   -2.2372 C   0  0  0  0  0  0  0  0  0  0  0  0
   -6.7518   -9.0090   -1.9280 C   0  0  0  0  0  0  0  0  0  0  0  0
   -7.9851   -8.4228   -1.7041 C   0  0  0  0  0  0  0  0  0  0  0  0
   -8.1231   -7.0490   -1.7900 C   0  0  0  0  0  0  0  0  0  0  0  0
   -7.0279   -6.2623   -2.0943 C   0  0  0  0  0  0  0  0  0  0  0  0
   -9.4658   -6.4098   -1.5464 C   0  0  0  0  0  0  0  0  0  0  0  0
   -9.3546   -5.0225   -1.6887 F   0  0  0  0  0  0  0  0  0  0  0  0
  -10.3912   -6.9009   -2.4736 F   0  0  0  0  0  0  0  0  0  0  0  0
   -9.8983   -6.7125   -0.2508 F   0  0  0  0  0  0  0  0  0  0  0  0
   -9.3587   -9.4109   -1.3163 Cl  0  0  0  0  0  0  0  0  0  0  0  0
    1.0039    1.9031    0.0027 H   0  0  0  0  0  0  0  0  0  0  0  0
   -0.5459    1.8868   -0.8726 H   0  0  0  0  0  0  0  0  0  0  0  0
   -0.5289    1.8773    0.9072 H   0  0  0  0  0  0  0  0  0  0  0  0
    0.5293   -0.3651    0.8851 H   0  0  0  0  0  0  0  0  0  0  0  0
   -1.0205   -0.3814    0.0098 H   0  0  0  0  0  0  0  0  0  0  0  0
    0.8481    0.1331   -1.9406 H   0  0  0  0  0  0  0  0  0  0  0  0
   -0.2963   -3.2490    0.8273 H   0  0  0  0  0  0  0  0  0  0  0  0
   -2.3143   -4.6576    0.8404 H   0  0  0  0  0  0  0  0  0  0  0  0
   -2.4762   -4.4481   -3.4283 H   0  0  0  0  0  0  0  0  0  0  0  0
   -0.4637   -3.0316   -3.4294 H   0  0  0  0  0  0  0  0  0  0  0  0
   -4.6962   -8.6794   -2.4119 H   0  0  0  0  0  0  0  0  0  0  0  0
   -6.6435  -10.0815   -1.8614 H   0  0  0  0  0  0  0  0  0  0  0  0
   -7.1346   -5.1895   -2.1574 H   0  0  0  0  0  0  0  0  0  0  0  0
  1  2  1  0  0  0  0
  1 28  1  0  0  0  0
  1 29  1  0  0  0  0
  1 30  1  0  0  0  0
  2  3  1  0  0  0  0
  2 31  1  0  0  0  0
  2 32  1  0  0  0  0
  3  4  1  0  0  0  0
  3 33  1  0  0  0  0
  4  5  2  0  0  0  0
  4  6  2  0  0  0  0
  4  7  1  0  0  0  0
  7 12  2  0  0  0  0
  7  8  1  0  0  0  0
  8  9  2  0  0  0  0
  8 34  1  0  0  0  0
  9 10  1  0  0  0  0
  9 35  1  0  0  0  0
 10 11  2  0  0  0  0
 10 13  1  0  0  0  0
 11 12  1  0  0  0  0
 11 36  1  0  0  0  0
 12 37  1  0  0  0  0
 13 14  1  0  0  0  0
 14 15  2  0  0  0  0
 14 16  2  0  0  0  0
 14 17  1  0  0  0  0
 17 22  2  0  0  0  0
 17 18  1  0  0  0  0
 18 19  2  0  0  0  0
 18 38  1  0  0  0  0
 19 20  1  0  0  0  0
 19 39  1  0  0  0  0
 20 21  2  0  0  0  0
 20 27  1  0  0  0  0
 21 22  1  0  0  0  0
 21 23  1  0  0  0  0
 22 40  1  0  0  0  0
 23 24  1  0  0  0  0
 23 25  1  0  0  0  0
 23 26  1  0  0  0  0
M  END
$$$$
ZINC38797127
 OpenBabel01252620473D

 47 50  0  0  1  0  0  0  0  0999 V2000
   -0.0167    1.3778    0.0096 C   0  0  0  0  0  0  0  0  0  0  0  0
    1.1704    2.0860    0.0021 C   0  0  0  0  0  0  0  0  0  0  0  0
    2.3791    1.4110   -0.0130 C   0  0  0  0  0  0  0  0  0  0  0  0
    2.3979    0.0265   -0.0206 C   0  0  0  0  0  0  0  0  0  0  0  0
    1.2093   -0.6804   -0.0130 C   0  0  0  0  0  0  0  0  0  0  0  0
    0.0021   -0.0041    0.0020 C   0  0  0  0  0  0  0  0  0  0  0  0
    1.2317   -2.4162   -0.0225 Cl  0  0  0  0  0  0  0  0  0  0  0  0
    3.7128   -0.7096   -0.0376 C   0  0  0  0  0  0  0  0  0  0  0  0
    4.2573   -1.0140    1.6658 S   0  0  0  0  0  0  0  0  0  0  0  0
    4.5296    0.2376    2.2811 O   0  0  0  0  0  0  0  0  0  0  0  0
    3.3329   -1.9002    2.2816 O   0  0  0  0  0  0  0  0  0  0  0  0
    5.8271   -1.8928    1.4336 C   0  0  1  0  0  0  0  0  0  0  0  0
    6.2759   -2.1295    2.3983 H   0  0  0  0  0  0  0  0  0  0  0  0
    5.6160   -3.1285    0.6447 N   0  0  0  0  0  0  0  0  0  0  0  0
    6.7857   -3.2501   -0.2275 N   0  0  0  0  0  0  0  0  0  0  0  0
    7.6422   -2.0815    0.0802 C   0  0  2  0  0  0  0  0  0  0  0  0
    8.4036   -2.3503    0.8125 H   0  0  0  0  0  0  0  0  0  0  0  0
    6.7354   -1.1007    0.6355 O   0  0  0  0  0  0  0  0  0  0  0  0
    8.2955   -1.5474   -1.1960 C   0  0  0  0  0  0  0  0  0  0  0  0
    7.2550   -1.1396   -2.1434 N   0  0  0  0  0  0  0  0  0  0  0  0
    7.6447   -0.1907   -3.4433 S   0  0  0  0  0  0  0  0  0  0  0  0
    6.4435    0.0070   -4.1764 O   0  0  0  0  0  0  0  0  0  0  0  0
    8.4166    0.8909   -2.9398 O   0  0  0  0  0  0  0  0  0  0  0  0
    8.7151   -1.1355   -4.4758 C   0  0  0  0  0  0  0  0  0  0  0  0
   10.0864   -1.0819   -4.2780 C   0  0  0  0  0  0  0  0  0  0  0  0
   10.9352   -1.8156   -5.0773 C   0  0  0  0  0  0  0  0  0  0  0  0
   10.4101   -2.6170   -6.0919 C   0  0  0  0  0  0  0  0  0  0  0  0
    9.0222   -2.6684   -6.2887 C   0  0  0  0  0  0  0  0  0  0  0  0
    8.1824   -1.9280   -5.4721 C   0  0  0  0  0  0  0  0  0  0  0  0
    8.8154   -3.5133   -7.3245 O   0  0  0  0  0  0  0  0  0  0  0  0
   10.0105   -3.9607   -7.7460 C   0  0  0  0  0  0  0  0  0  0  0  0
   10.1967   -4.8253   -8.7683 O   0  5  0  0  0  0  0  0  0  0  0  0
   10.9660   -3.4381   -7.0248 N   0  0  0  0  0  0  0  0  0  0  0  0
    3.5395    2.1027   -0.0208 F   0  0  0  0  0  0  0  0  0  0  0  0
   -0.9593    1.9047    0.0259 H   0  0  0  0  0  0  0  0  0  0  0  0
    1.1550    3.1658    0.0076 H   0  0  0  0  0  0  0  0  0  0  0  0
   -0.9260   -0.5564    0.0079 H   0  0  0  0  0  0  0  0  0  0  0  0
    3.5900   -1.6609   -0.5553 H   0  0  0  0  0  0  0  0  0  0  0  0
    4.4594   -0.1077   -0.5556 H   0  0  0  0  0  0  0  0  0  0  0  0
    5.5298   -3.9325    1.2482 H   0  0  0  0  0  0  0  0  0  0  0  0
    7.2773   -4.1142   -0.0548 H   0  0  0  0  0  0  0  0  0  0  0  0
    8.9213   -0.6890   -0.9521 H   0  0  0  0  0  0  0  0  0  0  0  0
    8.9091   -2.3287   -1.6445 H   0  0  0  0  0  0  0  0  0  0  0  0
    6.3379   -1.4255   -2.0091 H   0  0  0  0  0  0  0  0  0  0  0  0
   10.4916   -0.4610   -3.4927 H   0  0  0  0  0  0  0  0  0  0  0  0
   12.0026   -1.7704   -4.9197 H   0  0  0  0  0  0  0  0  0  0  0  0
    7.1130   -1.9680   -5.6178 H   0  0  0  0  0  0  0  0  0  0  0  0
  1  6  2  0  0  0  0
  1  2  1  0  0  0  0
  1 35  1  0  0  0  0
  2  3  2  0  0  0  0
  2 36  1  0  0  0  0
  3  4  1  0  0  0  0
  3 34  1  0  0  0  0
  4  5  2  0  0  0  0
  4  8  1  0  0  0  0
  5  6  1  0  0  0  0
  5  7  1  0  0  0  0
  6 37  1  0  0  0  0
  8  9  1  0  0  0  0
  8 38  1  0  0  0  0
  8 39  1  0  0  0  0
  9 10  2  0  0  0  0
  9 11  2  0  0  0  0
  9 12  1  0  0  0  0
 12 13  1  1  0  0  0
 12 18  1  0  0  0  0
 12 14  1  0  0  0  0
 14 15  1  0  0  0  0
 14 40  1  0  0  0  0
 15 16  1  0  0  0  0
 15 41  1  0  0  0  0
 16 17  1  1  0  0  0
 16 18  1  0  0  0  0
 16 19  1  0  0  0  0
 19 20  1  0  0  0  0
 19 42  1  0  0  0  0
 19 43  1  0  0  0  0
 20 21  1  0  0  0  0
 20 44  1  0  0  0  0
 21 22  2  0  0  0  0
 21 23  2  0  0  0  0
 21 24  1  0  0  0  0
 24 29  2  0  0  0  0
 24 25  1  0  0  0  0
 25 26  2  0  0  0  0
 25 45  1  0  0  0  0
 26 27  1  0  0  0  0
 26 46  1  0  0  0  0
 27 33  1  0  0  0  0
 27 28  2  0  0  0  0
 28 29  1  0  0  0  0
 28 30  1  0  0  0  0
 29 47  1  0  0  0  0
 30 31  1  0  0  0  0
 31 32  1  0  0  0  0
 31 33  2  0  0  0  0
M  CHG  1  32  -1
M  END
$$$$
ZINC36065003
 OpenBabel01252620473D

 55 57  0  0  1  0  0  0  0  0999 V2000
    0.4043    1.2698    0.1370 C   0  0  0  0  0  0  0  0  0  0  0  0
    0.1698   -0.2181    0.1853 C   0  0  0  0  0  0  0  0  0  0  0  0
   -1.1095   -0.7165    0.0301 C   0  0  0  0  0  0  0  0  0  0  0  0
   -1.2933   -2.2167    0.0857 C   0  0  2  0  0  0  0  0  0  0  0  0
   -1.9969   -2.4390    0.8880 H   0  0  0  0  0  0  0  0  0  0  0  0
   -0.0744   -3.0402    0.3045 N   0  0  0  0  0  0  0  0  0  0  0  0
   -0.0055   -4.4166    0.3890 C   0  0  0  0  0  0  0  0  0  0  0  0
    1.2094   -4.9721    0.5921 C   0  0  0  0  0  0  0  0  0  0  0  0
    2.2634   -3.5374    0.6644 S   0  0  0  0  0  0  0  0  0  0  0  0
    1.0988   -2.3509    0.4341 C   0  0  0  0  0  0  0  0  0  0  0  0
    1.1911   -1.0385    0.3705 N   0  0  0  0  0  0  0  0  0  0  0  0
   -1.2111   -5.2481    0.2628 C   0  0  0  0  0  0  0  0  0  0  0  0
   -1.1376   -6.5767    0.4711 C   0  0  0  0  0  0  0  0  0  0  0  0
    0.0649   -7.1632    0.6877 O   0  5  0  0  0  0  0  0  0  0  0  0
   -2.2906   -7.3434    0.4640 N   0  0  0  0  0  0  0  0  0  0  0  0
   -2.2256   -8.7672    0.8028 C   0  0  0  0  0  0  0  0  0  0  0  0
   -2.3248   -8.9355    2.3203 C   0  0  0  0  0  0  0  0  0  0  0  0
   -3.3855   -9.5048    0.1309 C   0  0  0  0  0  0  0  0  0  0  0  0
   -1.9221   -2.6555   -1.2117 C   0  0  0  0  0  0  0  0  0  0  0  0
   -3.2535   -3.0252   -1.2444 C   0  0  0  0  0  0  0  0  0  0  0  0
   -3.8305   -3.4277   -2.4342 C   0  0  0  0  0  0  0  0  0  0  0  0
   -3.0767   -3.4609   -3.5929 C   0  0  0  0  0  0  0  0  0  0  0  0
   -1.7456   -3.0913   -3.5627 C   0  0  0  0  0  0  0  0  0  0  0  0
   -1.1679   -2.6829   -2.3722 C   0  0  0  0  0  0  0  0  0  0  0  0
    0.1322   -2.3167   -2.3424 F   0  0  0  0  0  0  0  0  0  0  0  0
   -2.1995    0.1388   -0.1716 C   0  0  0  0  0  0  0  0  0  0  0  0
   -2.0386    1.3467   -0.1491 O   0  0  0  0  0  0  0  0  0  0  0  0
   -3.4300   -0.3750   -0.3911 O   0  0  0  0  0  0  0  0  0  0  0  0
   -4.4960    0.5560   -0.5888 C   0  0  0  0  0  0  0  0  0  0  0  0
   -4.6199    0.8805   -2.0789 C   0  0  0  0  0  0  0  0  0  0  0  0
   -5.8065   -0.0556   -0.0894 C   0  0  0  0  0  0  0  0  0  0  0  0
    1.4662    1.4748    0.2723 H   0  0  0  0  0  0  0  0  0  0  0  0
    0.0795    1.6576   -0.8285 H   0  0  0  0  0  0  0  0  0  0  0  0
   -0.1633    1.7530    0.9322 H   0  0  0  0  0  0  0  0  0  0  0  0
    1.4731   -6.0152    0.6868 H   0  0  0  0  0  0  0  0  0  0  0  0
   -2.1558   -4.7936    0.0032 H   0  0  0  0  0  0  0  0  0  0  0  0
   -3.1414   -6.9378    0.2347 H   0  0  0  0  0  0  0  0  0  0  0  0
   -1.2801   -9.1813    0.4524 H   0  0  0  0  0  0  0  0  0  0  0  0
   -2.1907   -9.9858    2.5789 H   0  0  0  0  0  0  0  0  0  0  0  0
   -1.5497   -8.3406    2.8033 H   0  0  0  0  0  0  0  0  0  0  0  0
   -3.3048   -8.5999    2.6597 H   0  0  0  0  0  0  0  0  0  0  0  0
   -3.3148   -9.3850   -0.9502 H   0  0  0  0  0  0  0  0  0  0  0  0
   -3.3371  -10.5642    0.3830 H   0  0  0  0  0  0  0  0  0  0  0  0
   -4.3310   -9.0908    0.4813 H   0  0  0  0  0  0  0  0  0  0  0  0
   -3.8431   -3.0000   -0.3399 H   0  0  0  0  0  0  0  0  0  0  0  0
   -4.8708   -3.7168   -2.4588 H   0  0  0  0  0  0  0  0  0  0  0  0
   -3.5284   -3.7763   -4.5219 H   0  0  0  0  0  0  0  0  0  0  0  0
   -1.1570   -3.1176   -4.4678 H   0  0  0  0  0  0  0  0  0  0  0  0
   -4.2871    1.4706   -0.0339 H   0  0  0  0  0  0  0  0  0  0  0  0
   -4.8287   -0.0341   -2.6338 H   0  0  0  0  0  0  0  0  0  0  0  0
   -5.4330    1.5906   -2.2297 H   0  0  0  0  0  0  0  0  0  0  0  0
   -3.6863    1.3162   -2.4347 H   0  0  0  0  0  0  0  0  0  0  0  0
   -5.7182   -0.2868    0.9722 H   0  0  0  0  0  0  0  0  0  0  0  0
   -6.6195    0.6545   -0.2402 H   0  0  0  0  0  0  0  0  0  0  0  0
   -6.0153   -0.9702   -0.6443 H   0  0  0  0  0  0  0  0  0  0  0  0
  1  2  1  0  0  0  0
  1 32  1  0  0  0  0
  1 33  1  0  0  0  0
  1 34  1  0  0  0  0
  2 11  1  0  0  0  0
  2  3  2  0  0  0  0
  3  4  1  0  0  0  0
  3 26  1  0  0  0  0
  4  5  1  1  0  0  0
  4  6  1  0  0  0  0
  4 19  1  0  0  0  0
  6 10  1  0  0  0  0
  6  7  1  0  0  0  0
  7  8  2  0  0  0  0
  7 12  1  0  0  0  0
  8  9  1  0  0  0  0
  8 35  1  0  0  0  0
  9 10  1  0  0  0  0
 10 11  2  0  0  0  0
 12 13  2  0  0  0  0
 12 36  1  0  0  0  0
 13 14  1  0  0  0  0
 13 15  1  0  0  0  0
 15 16  1  0  0  0  0
 15 37  1  0  0  0  0
 16 17  1  0  0  0  0
 16 18  1  0  0  0  0
 16 38  1  0  0  0  0
 17 39  1  0  0  0  0
 17 40  1  0  0  0  0
 17 41  1  0  0  0  0
 18 42  1  0  0  0  0
 18 43  1  0  0  0  0
 18 44  1  0  0  0  0
 19 24  2  0  0  0  0
 19 20  1  0  0  0  0
 20 21  2  0  0  0  0
 20 45  1  0  0  0  0
 21 22  1  0  0  0  0
 21 46  1  0  0  0  0
 22 23  2  0  0  0  0
 22 47  1  0  0  0  0
 23 24  1  0  0  0  0
 23 48  1  0  0  0  0
 24 25  1  0  0  0  0
 26 27  2  0  0  0  0
 26 28  1  0  0  0  0
 28 29  1  0  0  0  0
 29 30  1  0  0  0  0
 29 31  1  0  0  0  0
 29 49  1  0  0  0  0
 30 50  1  0  0  0  0
 30 51  1  0  0  0  0
 30 52  1  0  0  0  0
 31 53  1  0  0  0  0
 31 54  1  0  0  0  0
 31 55  1  0  0  0  0
M  CHG  1  14  -1
M  END
$$$$
ZINC67180184
 OpenBabel01252620473D

 42 44  0  0  0  0  0  0  0  0999 V2000
   -0.0187    1.5258    0.0104 C   0  0  0  0  0  0  0  0  0  0  0  0
    0.0021   -0.0041    0.0020 C   0  0  0  0  0  0  0  0  0  0  0  0
    0.7106   -0.4894    1.1889 N   0  0  0  0  0  0  0  0  0  0  0  0
    2.0453   -0.6877    1.1331 C   0  0  0  0  0  0  0  0  0  0  0  0
    2.7315   -0.4455    0.0025 O   0  5  0  0  0  0  0  0  0  0  0  0
    2.7016   -1.1552    2.2917 C   0  0  0  0  0  0  0  0  0  0  0  0
    4.0847   -1.3841    2.3105 C   0  0  0  0  0  0  0  0  0  0  0  0
    4.6826   -1.8351    3.4476 C   0  0  0  0  0  0  0  0  0  0  0  0
    3.9302   -2.0761    4.6081 C   0  0  0  0  0  0  0  0  0  0  0  0
    2.5617   -1.8589    4.6194 C   0  0  0  0  0  0  0  0  0  0  0  0
    1.9281   -1.3940    3.4578 C   0  0  0  0  0  0  0  0  0  0  0  0
    0.6069   -1.1696    3.4229 N   0  0  0  0  0  0  0  0  0  0  0  0
    0.0247   -0.7257    2.3195 C   0  0  0  0  0  0  0  0  0  0  0  0
   -1.6648   -0.4492    2.3323 S   0  0  0  0  0  0  0  0  0  0  0  0
    4.6049   -2.5672    5.8308 C   0  0  0  0  0  0  0  0  0  0  0  0
    3.9594   -2.7775    6.8376 O   0  0  0  0  0  0  0  0  0  0  0  0
    5.9346   -2.7808    5.8265 O   0  0  0  0  0  0  0  0  0  0  0  0
    6.5195   -3.2548    7.0411 C   0  0  0  0  0  0  0  0  0  0  0  0
    8.0258   -3.4369    6.8447 C   0  0  0  0  0  0  0  0  0  0  0  0
    8.6473   -2.1333    6.5983 N   0  0  0  0  0  0  0  0  0  0  0  0
    8.8328   -1.5139    5.2775 C   0  0  0  0  0  0  0  0  0  0  0  0
    9.5239   -0.1730    5.5924 C   0  0  0  0  0  0  0  0  0  0  0  0
    9.6544   -0.1793    7.0571 N   0  0  0  0  0  0  0  0  0  0  0  0
    9.1315   -1.3138    7.5406 C   0  0  0  0  0  0  0  0  0  0  0  0
    9.1027   -1.5776    8.7272 O   0  0  0  0  0  0  0  0  0  0  0  0
    1.0039    1.9031    0.0027 H   0  0  0  0  0  0  0  0  0  0  0  0
   -0.5459    1.8868   -0.8726 H   0  0  0  0  0  0  0  0  0  0  0  0
   -0.5289    1.8773    0.9072 H   0  0  0  0  0  0  0  0  0  0  0  0
   -1.0205   -0.3814    0.0098 H   0  0  0  0  0  0  0  0  0  0  0  0
    0.5123   -0.3556   -0.8948 H   0  0  0  0  0  0  0  0  0  0  0  0
    4.6749   -1.2033    1.4243 H   0  0  0  0  0  0  0  0  0  0  0  0
    5.7483   -2.0098    3.4568 H   0  0  0  0  0  0  0  0  0  0  0  0
    1.9880   -2.0460    5.5150 H   0  0  0  0  0  0  0  0  0  0  0  0
    6.3416   -2.5312    7.8366 H   0  0  0  0  0  0  0  0  0  0  0  0
    6.0702   -4.2103    7.3119 H   0  0  0  0  0  0  0  0  0  0  0  0
    8.4579   -3.8818    7.7410 H   0  0  0  0  0  0  0  0  0  0  0  0
    8.2045   -4.0917    5.9918 H   0  0  0  0  0  0  0  0  0  0  0  0
    9.4715   -2.1354    4.6498 H   0  0  0  0  0  0  0  0  0  0  0  0
    7.8699   -1.3442    4.7958 H   0  0  0  0  0  0  0  0  0  0  0  0
   10.5057   -0.1286    5.1210 H   0  0  0  0  0  0  0  0  0  0  0  0
    8.9041    0.6625    5.2671 H   0  0  0  0  0  0  0  0  0  0  0  0
   10.0521    0.5277    7.5890 H   0  0  0  0  0  0  0  0  0  0  0  0
  1  2  1  0  0  0  0
  1 26  1  0  0  0  0
  1 27  1  0  0  0  0
  1 28  1  0  0  0  0
  2  3  1  0  0  0  0
  2 29  1  0  0  0  0
  2 30  1  0  0  0  0
  3 13  1  0  0  0  0
  3  4  1  0  0  0  0
  4  5  1  0  0  0  0
  4  6  2  0  0  0  0
  6 11  1  0  0  0  0
  6  7  1  0  0  0  0
  7  8  2  0  0  0  0
  7 31  1  0  0  0  0
  8  9  1  0  0  0  0
  8 32  1  0  0  0  0
  9 10  2  0  0  0  0
  9 15  1  0  0  0  0
 10 11  1  0  0  0  0
 10 33  1  0  0  0  0
 11 12  2  0  0  0  0
 12 13  1  0  0  0  0
 13 14  2  0  0  0  0
 15 16  2  0  0  0  0
 15 17  1  0  0  0  0
 17 18  1  0  0  0  0
 18 19  1  0  0  0  0
 18 34  1  0  0  0  0
 18 35  1  0  0  0  0
 19 20  1  0  0  0  0
 19 36  1  0  0  0  0
 19 37  1  0  0  0  0
 20 24  1  0  0  0  0
 20 21  1  0  0  0  0
 21 22  1  0  0  0  0
 21 38  1  0  0  0  0
 21 39  1  0  0  0  0
 22 23  1  0  0  0  0
 22 40  1  0  0  0  0
 22 41  1  0  0  0  0
 23 24  1  0  0  0  0
 23 42  1  0  0  0  0
 24 25  2  0  0  0  0
M  CHG  1   5  -1
M  END
$$$$
ZINC37418318
 OpenBabel01252620473D

 30 31  0  0  0  0  0  0  0  0999 V2000
   -0.0184    1.5028    0.0103 C   0  0  0  0  0  0  0  0  0  0  0  0
    0.0021   -0.0041    0.0020 C   0  0  0  0  0  0  0  0  0  0  0  0
    0.0066   -0.7118   -1.1417 C   0  0  0  0  0  0  0  0  0  0  0  0
    0.0327   -2.4003   -0.5813 S   0  0  0  0  0  0  0  0  0  0  0  0
    0.0371   -2.1618    1.0794 C   0  0  0  0  0  0  0  0  0  0  0  0
    0.0242   -0.7783    1.2233 C   0  0  0  0  0  0  0  0  0  0  0  0
    0.0274   -0.1601    2.4994 C   0  0  0  0  0  0  0  0  0  0  0  0
    0.0112    1.0616    2.5883 O   0  0  0  0  0  0  0  0  0  0  0  0
    0.0464   -0.8477    3.5131 O   0  0  0  0  0  1  0  0  0  0  0  0
    0.0551   -3.1204    2.0762 N   0  0  0  0  0  0  0  0  0  0  0  0
    0.0723   -4.4287    1.7528 C   0  0  0  0  0  0  0  0  0  0  0  0
    0.0721   -4.7659    0.5858 O   0  0  0  0  0  0  0  0  0  0  0  0
    0.0917   -5.4581    2.8232 C   0  0  0  0  0  0  0  0  0  0  0  0
    0.1151   -6.7997    2.4948 C   0  0  0  0  0  0  0  0  0  0  0  0
    0.1335   -7.7504    3.5390 C   0  0  0  0  0  0  0  0  0  0  0  0
    0.1549   -8.9444    3.2924 O   0  0  0  0  0  0  0  0  0  0  0  0
    0.1275   -7.3115    4.8154 N   0  0  0  0  0  0  0  0  0  0  0  0
    0.1399   -7.9487    5.5466 H   0  0  0  0  0  0  0  0  0  0  0  0
    0.1046   -5.9790    5.0776 C   0  0  0  0  0  0  0  0  0  0  0  0
    0.0993   -5.5599    6.3598 O   0  5  0  0  0  0  0  0  0  0  0  0
    0.0920   -5.0890    4.1118 N   0  0  0  0  0  0  0  0  0  0  0  0
   -0.0071   -0.1979   -2.5583 C   0  0  0  0  0  0  0  0  0  0  0  0
    1.0042    1.8801    0.0026 H   0  0  0  0  0  0  0  0  0  0  0  0
   -0.5455    1.8639   -0.8728 H   0  0  0  0  0  0  0  0  0  0  0  0
   -0.5286    1.8543    0.9071 H   0  0  0  0  0  0  0  0  0  0  0  0
    0.0554   -2.8512    3.0081 H   0  0  0  0  0  0  0  0  0  0  0  0
    0.1189   -7.1147    1.4617 H   0  0  0  0  0  0  0  0  0  0  0  0
    1.0171   -0.0596   -2.9046 H   0  0  0  0  0  0  0  0  0  0  0  0
   -0.5140   -0.9176   -3.2010 H   0  0  0  0  0  0  0  0  0  0  0  0
   -0.5345    0.7554   -2.5938 H   0  0  0  0  0  0  0  0  0  0  0  0
  1  2  1  0  0  0  0
  1 23  1  0  0  0  0
  1 24  1  0  0  0  0
  1 25  1  0  0  0  0
  2  6  1  0  0  0  0
  2  3  2  0  0  0  0
  3  4  1  0  0  0  0
  3 22  1  0  0  0  0
  4  5  1  0  0  0  0
  5  6  2  0  0  0  0
  5 10  1  0  0  0  0
  6  7  1  0  0  0  0
  7  8  2  0  0  0  0
  7  9  1  0  0  0  0
 10 11  1  0  0  0  0
 10 26  1  0  0  0  0
 11 12  2  0  0  0  0
 11 13  1  0  0  0  0
 13 21  1  0  0  0  0
 13 14  2  0  0  0  0
 14 15  1  0  0  0  0
 14 27  1  0  0  0  0
 15 16  2  0  0  0  0
 15 17  1  0  0  0  0
 17 18  1  0  0  0  0
 17 19  1  0  0  0  0
 19 20  1  0  0  0  0
 19 21  2  0  0  0  0
 22 28  1  0  0  0  0
 22 29  1  0  0  0  0
 22 30  1  0  0  0  0
M  CHG  1  20  -1
M  END
$$$$
ZINC39380096
 OpenBabel01252620473D

 53 55  0  0  1  0  0  0  0  0999 V2000
   -0.1494    0.9497    1.1813 C   0  0  0  0  0  0  0  0  0  0  0  0
   -0.1417   -0.5635    0.9550 C   0  0  0  0  0  0  0  0  0  0  0  0
    0.6454   -0.8849   -0.3170 C   0  0  0  0  0  0  0  0  0  0  0  0
    0.6531   -2.3981   -0.5432 C   0  0  0  0  0  0  0  0  0  0  0  0
    1.5863   -2.7793   -2.0514 S   0  0  0  0  0  0  0  0  0  0  0  0
    1.5037   -4.5352   -2.1714 C   0  0  0  0  0  0  0  0  0  0  0  0
    0.8328   -5.1788   -1.2271 N   0  0  0  0  0  0  0  0  0  0  0  0
    0.8502   -6.5095   -1.1311 C   0  0  0  0  0  0  0  0  0  0  0  0
    0.2269   -7.0976   -0.2682 O   0  0  0  0  0  0  0  0  0  0  0  0
    1.6864   -7.2479   -2.1537 C   0  0  1  0  0  0  0  0  0  0  0  0
    2.5349   -7.6912   -1.6326 H   0  0  0  0  0  0  0  0  0  0  0  0
    0.8625   -8.3877   -2.7397 C   0  0  2  0  0  0  0  0  0  0  0  0
    0.6278   -9.1095   -1.9574 H   0  0  0  0  0  0  0  0  0  0  0  0
    1.6731   -9.0603   -3.8243 C   0  0  0  0  0  0  0  0  0  0  0  0
    2.5272   -8.3014   -4.6117 C   0  0  0  0  0  0  0  0  0  0  0  0
    2.6856   -7.0065   -4.3916 N   0  0  0  0  0  0  0  0  0  0  0  0
    2.2282   -6.4196   -3.2991 C   0  0  0  0  0  0  0  0  0  0  0  0
    2.1157   -5.1065   -3.2059 N   0  0  0  0  0  0  0  0  0  0  0  0
    3.2860   -8.9621   -5.7337 C   0  0  0  0  0  0  0  0  0  0  0  0
    1.5645  -10.4221   -4.0299 C   0  0  0  0  0  0  0  0  0  0  0  0
    0.8257  -11.1728   -3.1909 O   0  5  0  0  0  0  0  0  0  0  0  0
    2.1973  -10.9987   -5.0692 O   0  0  0  0  0  0  0  0  0  0  0  0
    2.0411  -12.4110   -5.2213 C   0  0  0  0  0  0  0  0  0  0  0  0
    2.8148  -12.8749   -6.4285 C   0  0  0  0  0  0  0  0  0  0  0  0
    3.5582  -13.9511   -6.3562 C   0  0  0  0  0  0  0  0  0  0  0  0
   -0.4148   -7.8407   -3.3231 C   0  0  0  0  0  0  0  0  0  0  0  0
   -0.3649   -6.9129   -4.3467 C   0  0  0  0  0  0  0  0  0  0  0  0
   -1.5356   -6.4110   -4.8828 C   0  0  0  0  0  0  0  0  0  0  0  0
   -2.7588   -6.8377   -4.3943 C   0  0  0  0  0  0  0  0  0  0  0  0
   -2.8076   -7.7670   -3.3691 C   0  0  0  0  0  0  0  0  0  0  0  0
   -1.6357   -8.2715   -2.8382 C   0  0  0  0  0  0  0  0  0  0  0  0
   -3.9039   -6.3474   -4.9174 F   0  0  0  0  0  0  0  0  0  0  0  0
    0.8751    1.3063    1.2880 H   0  0  0  0  0  0  0  0  0  0  0  0
   -0.6186    1.4420    0.3295 H   0  0  0  0  0  0  0  0  0  0  0  0
   -0.7101    1.1787    2.0875 H   0  0  0  0  0  0  0  0  0  0  0  0
    0.3275   -1.0558    1.8068 H   0  0  0  0  0  0  0  0  0  0  0  0
   -1.1662   -0.9201    0.8483 H   0  0  0  0  0  0  0  0  0  0  0  0
    0.1762   -0.3926   -1.1688 H   0  0  0  0  0  0  0  0  0  0  0  0
    1.6698   -0.5283   -0.2102 H   0  0  0  0  0  0  0  0  0  0  0  0
    1.1223   -2.8905    0.3085 H   0  0  0  0  0  0  0  0  0  0  0  0
   -0.3714   -2.7547   -0.6500 H   0  0  0  0  0  0  0  0  0  0  0  0
    2.5811   -9.3972   -6.4422 H   0  0  0  0  0  0  0  0  0  0  0  0
    3.9013   -8.2201   -6.2425 H   0  0  0  0  0  0  0  0  0  0  0  0
    3.9244   -9.7469   -5.3279 H   0  0  0  0  0  0  0  0  0  0  0  0
    2.4181  -12.9161   -4.3320 H   0  0  0  0  0  0  0  0  0  0  0  0
    0.9853  -12.6476   -5.3535 H   0  0  0  0  0  0  0  0  0  0  0  0
    2.7564  -12.3200   -7.3532 H   0  0  0  0  0  0  0  0  0  0  0  0
    4.1126  -14.2835   -7.2214 H   0  0  0  0  0  0  0  0  0  0  0  0
    3.6165  -14.5059   -5.4315 H   0  0  0  0  0  0  0  0  0  0  0  0
    0.5894   -6.5799   -4.7274 H   0  0  0  0  0  0  0  0  0  0  0  0
   -1.4963   -5.6859   -5.6823 H   0  0  0  0  0  0  0  0  0  0  0  0
   -3.7612   -8.1004   -2.9871 H   0  0  0  0  0  0  0  0  0  0  0  0
   -1.6735   -8.9997   -2.0415 H   0  0  0  0  0  0  0  0  0  0  0  0
  1  2  1  0  0  0  0
  1 33  1  0  0  0  0
  1 34  1  0  0  0  0
  1 35  1  0  0  0  0
  2  3  1  0  0  0  0
  2 36  1  0  0  0  0
  2 37  1  0  0  0  0
  3  4  1  0  0  0  0
  3 38  1  0  0  0  0
  3 39  1  0  0  0  0
  4  5  1  0  0  0  0
  4 40  1  0  0  0  0
  4 41  1  0  0  0  0
  5  6  1  0  0  0  0
  6 18  1  0  0  0  0
  6  7  2  0  0  0  0
  7  8  1  0  0  0  0
  8  9  2  0  0  0  0
  8 10  1  0  0  0  0
 10 11  1  1  0  0  0
 10 17  1  0  0  0  0
 10 12  1  0  0  0  0
 12 13  1  1  0  0  0
 12 14  1  0  0  0  0
 12 26  1  0  0  0  0
 14 15  1  0  0  0  0
 14 20  2  0  0  0  0
 15 16  2  0  0  0  0
 15 19  1  0  0  0  0
 16 17  1  0  0  0  0
 17 18  2  0  0  0  0
 19 42  1  0  0  0  0
 19 43  1  0  0  0  0
 19 44  1  0  0  0  0
 20 21  1  0  0  0  0
 20 22  1  0  0  0  0
 22 23  1  0  0  0  0
 23 24  1  0  0  0  0
 23 45  1  0  0  0  0
 23 46  1  0  0  0  0
 24 25  2  0  0  0  0
 24 47  1  0  0  0  0
 25 48  1  0  0  0  0
 25 49  1  0  0  0  0
 26 31  2  0  0  0  0
 26 27  1  0  0  0  0
 27 28  2  0  0  0  0
 27 50  1  0  0  0  0
 28 29  1  0  0  0  0
 28 51  1  0  0  0  0
 29 30  2  0  0  0  0
 29 32  1  0  0  0  0
 30 31  1  0  0  0  0
 30 52  1  0  0  0  0
 31 53  1  0  0  0  0
M  CHG  1  21  -1
M  END
$$$$
ZINC13025805
 OpenBabel01252620473D

 49 50  0  0  1  0  0  0  0  0999 V2000
    0.5919   -6.2927   -1.2847 C   0  0  0  0  0  0  0  0  0  0  0  0
    0.6588   -4.7642   -1.2776 C   0  0  0  0  0  0  0  0  0  0  0  0
   -0.0516   -4.2170   -2.5173 C   0  0  0  0  0  0  0  0  0  0  0  0
   -0.0273   -4.2295   -0.0190 C   0  0  1  0  0  0  0  0  0  0  0  0
   -1.0698   -4.5477   -0.0104 H   0  0  0  0  0  0  0  0  0  0  0  0
    0.6724   -4.7685    1.2021 C   0  0  0  0  0  0  0  0  0  0  0  0
    1.1731   -4.0082    1.9964 O   0  0  0  0  0  0  0  0  0  0  0  0
    0.0367   -2.7659   -0.0122 N   0  0  0  0  0  0  0  0  0  0  0  0
    1.2396   -2.1457   -0.0203 C   0  0  0  0  0  0  0  0  0  0  0  0
    2.2777   -2.7813   -0.0336 O   0  0  0  0  0  0  0  0  0  0  0  0
    1.2453   -0.6766   -0.0135 C   0  0  0  0  0  0  0  0  0  0  0  0
    2.4319    0.0552   -0.0209 C   0  0  0  0  0  0  0  0  0  0  0  0
    2.3807    1.4218   -0.0131 C   0  0  0  0  0  0  0  0  0  0  0  0
    1.1610    2.0862    0.0022 C   0  0  0  0  0  0  0  0  0  0  0  0
   -0.0169    1.3939    0.0097 C   0  0  0  0  0  0  0  0  0  0  0  0
    0.0021   -0.0041    0.0020 C   0  0  0  0  0  0  0  0  0  0  0  0
   -1.1361   -0.7266    0.0094 N   0  0  0  0  0  0  0  0  0  0  0  0
   -1.1180   -2.0367    0.0027 C   0  0  0  0  0  0  0  0  0  0  0  0
   -2.6551   -2.8979    0.0127 S   0  0  0  0  0  0  0  0  0  0  0  0
   -3.8004   -1.4964    0.0304 C   0  0  0  0  0  0  0  0  0  0  0  0
   -5.2184   -2.0066    0.0411 C   0  0  0  0  0  0  0  0  0  0  0  0
   -5.4334   -3.1998    0.0371 O   0  0  0  0  0  0  0  0  0  0  0  0
   -6.2476   -1.1365    0.0551 N   0  0  0  0  0  0  0  0  0  0  0  0
   -7.5157   -1.5928    0.0646 C   0  0  0  0  0  0  0  0  0  0  0  0
   -7.7312   -2.7889    0.0606 O   0  0  0  0  0  0  0  0  0  0  0  0
   -8.5449   -0.7227    0.0786 N   0  0  0  0  0  0  0  0  0  0  0  0
   -9.9233   -1.2187    0.0890 C   0  0  0  0  0  0  0  0  0  0  0  0
  -10.8915   -0.0340    0.1040 C   0  0  0  0  0  0  0  0  0  0  0  0
  -10.6866    0.7502   -1.0363 F   0  0  0  0  0  0  0  0  0  0  0  0
  -12.2078   -0.5076    0.1139 F   0  0  0  0  0  0  0  0  0  0  0  0
  -10.6653    0.7386    1.2481 F   0  0  0  0  0  0  0  0  0  0  0  0
   -0.4506   -6.6109   -1.2761 H   0  0  0  0  0  0  0  0  0  0  0  0
    1.0807   -6.6737   -2.1814 H   0  0  0  0  0  0  0  0  0  0  0  0
    1.0980   -6.6826   -0.4015 H   0  0  0  0  0  0  0  0  0  0  0  0
    1.7013   -4.4461   -1.2862 H   0  0  0  0  0  0  0  0  0  0  0  0
   -1.0941   -4.5351   -2.5087 H   0  0  0  0  0  0  0  0  0  0  0  0
   -0.0040   -3.1280   -2.5123 H   0  0  0  0  0  0  0  0  0  0  0  0
    0.4372   -4.5979   -3.4140 H   0  0  0  0  0  0  0  0  0  0  0  0
    3.3846   -0.4534   -0.0324 H   0  0  0  0  0  0  0  0  0  0  0  0
    3.2987    1.9907   -0.0191 H   0  0  0  0  0  0  0  0  0  0  0  0
    1.1435    3.1661    0.0078 H   0  0  0  0  0  0  0  0  0  0  0  0
   -0.9579    1.9239    0.0171 H   0  0  0  0  0  0  0  0  0  0  0  0
   -3.6242   -0.8944    0.9219 H   0  0  0  0  0  0  0  0  0  0  0  0
   -3.6408   -0.8855   -0.8580 H   0  0  0  0  0  0  0  0  0  0  0  0
   -6.0756   -0.1819    0.0583 H   0  0  0  0  0  0  0  0  0  0  0  0
   -8.3729    0.2319    0.0818 H   0  0  0  0  0  0  0  0  0  0  0  0
  -10.0996   -1.8207   -0.8024 H   0  0  0  0  0  0  0  0  0  0  0  0
  -10.0830   -1.8296    0.9774 H   0  0  0  0  0  0  0  0  0  0  0  0
    0.7393   -6.0934    1.4072 O   0  0  0  0  0  1  0  0  0  0  0  0
  1  2  1  0  0  0  0
  1 32  1  0  0  0  0
  1 33  1  0  0  0  0
  1 34  1  0  0  0  0
  2  3  1  0  0  0  0
  2  4  1  0  0  0  0
  2 35  1  0  0  0  0
  3 36  1  0  0  0  0
  3 37  1  0  0  0  0
  3 38  1  0  0  0  0
  4  5  1  1  0  0  0
  4  6  1  0  0  0  0
  4  8  1  0  0  0  0
  6  7  2  0  0  0  0
  6 49  1  0  0  0  0
  8 18  1  0  0  0  0
  8  9  1  0  0  0  0
  9 10  2  0  0  0  0
  9 11  1  0  0  0  0
 11 16  2  0  0  0  0
 11 12  1  0  0  0  0
 12 13  2  0  0  0  0
 12 39  1  0  0  0  0
 13 14  1  0  0  0  0
 13 40  1  0  0  0  0
 14 15  2  0  0  0  0
 14 41  1  0  0  0  0
 15 16  1  0  0  0  0
 15 42  1  0  0  0  0
 16 17  1  0  0  0  0
 17 18  2  0  0  0  0
 18 19  1  0  0  0  0
 19 20  1  0  0  0  0
 20 21  1  0  0  0  0
 20 43  1  0  0  0  0
 20 44  1  0  0  0  0
 21 22  2  0  0  0  0
 21 23  1  0  0  0  0
 23 24  1  0  0  0  0
 23 45  1  0  0  0  0
 24 25  2  0  0  0  0
 24 26  1  0  0  0  0
 26 27  1  0  0  0  0
 26 46  1  0  0  0  0
 27 28  1  0  0  0  0
 27 47  1  0  0  0  0
 27 48  1  0  0  0  0
 28 29  1  0  0  0  0
 28 30  1  0  0  0  0
 28 31  1  0  0  0  0
M  END
$$$$
ZINC40083738
 OpenBabel01252620473D

 61 63  0  0  1  0  0  0  0  0999 V2000
   -2.3647    2.4465    2.0175 C   0  0  0  0  0  0  0  0  0  0  0  0
   -2.5614    1.1249    1.2721 C   0  0  0  0  0  0  0  0  0  0  0  0
   -2.5594   -0.0311    2.2745 C   0  0  0  0  0  0  0  0  0  0  0  0
   -2.7561   -1.3527    1.5292 C   0  0  0  0  0  0  0  0  0  0  0  0
   -2.7542   -2.4324    2.4653 O   0  0  0  0  0  0  0  0  0  0  0  0
   -3.0191   -3.6708    1.9780 C   0  0  0  0  0  0  0  0  0  0  0  0
   -3.1681   -3.8596    0.6083 C   0  0  0  0  0  0  0  0  0  0  0  0
   -3.4363   -5.1142    0.1097 C   0  0  0  0  0  0  0  0  0  0  0  0
   -3.5589   -6.1998    0.9827 C   0  0  0  0  0  0  0  0  0  0  0  0
   -3.4083   -6.0056    2.3590 C   0  0  0  0  0  0  0  0  0  0  0  0
   -3.1349   -4.7483    2.8489 C   0  0  0  0  0  0  0  0  0  0  0  0
   -3.5399   -7.1717    3.3045 C   0  0  0  0  0  0  0  0  0  0  0  0
   -3.8470   -7.5470    0.4526 C   0  0  0  0  0  0  0  0  0  0  0  0
   -4.9700   -7.8249    0.0748 O   0  0  0  0  0  0  0  0  0  0  0  0
   -2.7801   -8.5504    0.3811 C   0  0  0  0  0  0  0  0  0  0  0  0
   -2.8928   -9.8168   -0.0824 C   0  0  0  0  0  0  0  0  0  0  0  0
   -1.5816  -10.4906    0.0218 C   0  0  0  0  0  0  0  0  0  0  0  0
   -1.3578  -11.6366   -0.3142 O   0  0  0  0  0  0  0  0  0  0  0  0
   -0.6723   -9.6475    0.5439 N   0  0  0  0  0  0  0  0  0  0  0  0
   -1.3414   -8.3676    0.8048 C   0  0  1  0  0  0  0  0  0  0  0  0
   -1.2908   -8.1308    1.8675 H   0  0  0  0  0  0  0  0  0  0  0  0
   -0.6989   -7.2693   -0.0027 C   0  0  0  0  0  0  0  0  0  0  0  0
   -0.6580   -7.3608   -1.3816 C   0  0  0  0  0  0  0  0  0  0  0  0
   -0.0698   -6.3559   -2.1269 C   0  0  0  0  0  0  0  0  0  0  0  0
    0.4800   -5.2537   -1.4920 C   0  0  0  0  0  0  0  0  0  0  0  0
    0.4383   -5.1615   -0.1042 C   0  0  0  0  0  0  0  0  0  0  0  0
   -0.1570   -6.1699    0.6366 C   0  0  0  0  0  0  0  0  0  0  0  0
    0.9765   -4.0817    0.5235 O   0  0  0  0  0  0  0  0  0  0  0  0
    0.9957   -4.1047    1.9522 C   0  0  0  0  0  0  0  0  0  0  0  0
    1.0593   -4.2646   -2.2237 O   0  0  0  0  0  0  0  0  0  0  0  0
    0.7378   -9.9513    0.8004 C   0  0  0  0  0  0  0  0  0  0  0  0
    1.5422   -9.7644   -0.4876 C   0  0  0  0  0  0  0  0  0  0  0  0
    1.5734   -8.3781   -0.8328 O   0  0  0  0  0  0  0  0  0  0  0  0
   -4.0261  -10.3771   -0.5646 O   0  5  0  0  0  0  0  0  0  0  0  0
   -2.3661    3.2700    1.3034 H   0  0  0  0  0  0  0  0  0  0  0  0
   -3.1756    2.5844    2.7327 H   0  0  0  0  0  0  0  0  0  0  0  0
   -1.4124    2.4266    2.5473 H   0  0  0  0  0  0  0  0  0  0  0  0
   -3.5138    1.1448    0.7424 H   0  0  0  0  0  0  0  0  0  0  0  0
   -1.7506    0.9870    0.5569 H   0  0  0  0  0  0  0  0  0  0  0  0
   -1.6070   -0.0509    2.8043 H   0  0  0  0  0  0  0  0  0  0  0  0
   -3.3703    0.1068    2.9897 H   0  0  0  0  0  0  0  0  0  0  0  0
   -3.7085   -1.3328    0.9994 H   0  0  0  0  0  0  0  0  0  0  0  0
   -1.9452   -1.4906    0.8139 H   0  0  0  0  0  0  0  0  0  0  0  0
   -3.0736   -3.0207   -0.0652 H   0  0  0  0  0  0  0  0  0  0  0  0
   -3.5523   -5.2600   -0.9541 H   0  0  0  0  0  0  0  0  0  0  0  0
   -3.0144   -4.5980    3.9116 H   0  0  0  0  0  0  0  0  0  0  0  0
   -2.5793   -7.6796    3.3908 H   0  0  0  0  0  0  0  0  0  0  0  0
   -3.8495   -6.8110    4.2854 H   0  0  0  0  0  0  0  0  0  0  0  0
   -4.2859   -7.8679    2.9212 H   0  0  0  0  0  0  0  0  0  0  0  0
   -1.0861   -8.2193   -1.8777 H   0  0  0  0  0  0  0  0  0  0  0  0
   -0.0384   -6.4301   -3.2039 H   0  0  0  0  0  0  0  0  0  0  0  0
   -0.1940   -6.0990    1.7136 H   0  0  0  0  0  0  0  0  0  0  0  0
    1.3870   -3.1584    2.3255 H   0  0  0  0  0  0  0  0  0  0  0  0
   -0.0172   -4.2522    2.3268 H   0  0  0  0  0  0  0  0  0  0  0  0
    1.6319   -4.9211    2.2939 H   0  0  0  0  0  0  0  0  0  0  0  0
    0.4499   -3.5613   -2.4866 H   0  0  0  0  0  0  0  0  0  0  0  0
    1.1203   -9.2792    1.5684 H   0  0  0  0  0  0  0  0  0  0  0  0
    0.8312  -10.9826    1.1407 H   0  0  0  0  0  0  0  0  0  0  0  0
    2.5599  -10.1241   -0.3358 H   0  0  0  0  0  0  0  0  0  0  0  0
    1.0738  -10.3291   -1.2937 H   0  0  0  0  0  0  0  0  0  0  0  0
    2.0678   -8.1851   -1.6411 H   0  0  0  0  0  0  0  0  0  0  0  0
  1  2  1  0  0  0  0
  1 35  1  0  0  0  0
  1 36  1  0  0  0  0
  1 37  1  0  0  0  0
  2  3  1  0  0  0  0
  2 38  1  0  0  0  0
  2 39  1  0  0  0  0
  3  4  1  0  0  0  0
  3 40  1  0  0  0  0
  3 41  1  0  0  0  0
  4  5  1  0  0  0  0
  4 42  1  0  0  0  0
  4 43  1  0  0  0  0
  5  6  1  0  0  0  0
  6 11  2  0  0  0  0
  6  7  1  0  0  0  0
  7  8  2  0  0  0  0
  7 44  1  0  0  0  0
  8  9  1  0  0  0  0
  8 45  1  0  0  0  0
  9 10  2  0  0  0  0
  9 13  1  0  0  0  0
 10 11  1  0  0  0  0
 10 12  1  0  0  0  0
 11 46  1  0  0  0  0
 12 47  1  0  0  0  0
 12 48  1  0  0  0  0
 12 49  1  0  0  0  0
 13 14  2  0  0  0  0
 13 15  1  0  0  0  0
 15 20  1  0  0  0  0
 15 16  2  0  0  0  0
 16 17  1  0  0  0  0
 16 34  1  0  0  0  0
 17 18  2  0  0  0  0
 17 19  1  0  0  0  0
 19 20  1  0  0  0  0
 19 31  1  0  0  0  0
 20 21  1  1  0  0  0
 20 22  1  0  0  0  0
 22 27  2  0  0  0  0
 22 23  1  0  0  0  0
 23 24  2  0  0  0  0
 23 50  1  0  0  0  0
 24 25  1  0  0  0  0
 24 51  1  0  0  0  0
 25 26  2  0  0  0  0
 25 30  1  0  0  0  0
 26 27  1  0  0  0  0
 26 28  1  0  0  0  0
 27 52  1  0  0  0  0
 28 29  1  0  0  0  0
 29 53  1  0  0  0  0
 29 54  1  0  0  0  0
 29 55  1  0  0  0  0
 30 56  1  0  0  0  0
 31 32  1  0  0  0  0
 31 57  1  0  0  0  0
 31 58  1  0  0  0  0
 32 33  1  0  0  0  0
 32 59  1  0  0  0  0
 32 60  1  0  0  0  0
 33 61  1  0  0  0  0
M  CHG  1  34  -1
M  END
$$$$
ZINC40123837
 OpenBabel01252620473D

 50 52  0  0  1  0  0  0  0  0999 V2000
   -0.4536    2.7787    1.1898 C   0  0  0  0  0  0  0  0  0  0  0  0
   -0.3845    1.2915    0.8374 C   0  0  0  0  0  0  0  0  0  0  0  0
    0.4131    0.5493    1.9116 C   0  0  0  0  0  0  0  0  0  0  0  0
    0.4777   -0.8397    1.5824 O   0  0  0  0  0  0  0  0  0  0  0  0
    1.1547   -1.6451    2.4394 C   0  0  0  0  0  0  0  0  0  0  0  0
    1.7411   -1.1070    3.5798 C   0  0  0  0  0  0  0  0  0  0  0  0
    2.4283   -1.9204    4.4519 C   0  0  0  0  0  0  0  0  0  0  0  0
    2.5364   -3.2898    4.1898 C   0  0  0  0  0  0  0  0  0  0  0  0
    1.9454   -3.8267    3.0422 C   0  0  0  0  0  0  0  0  0  0  0  0
    1.2553   -3.0068    2.1778 C   0  0  0  0  0  0  0  0  0  0  0  0
    0.6130   -3.5854    0.9434 C   0  0  0  0  0  0  0  0  0  0  0  0
    3.2728   -4.1659    5.1220 C   0  0  0  0  0  0  0  0  0  0  0  0
    3.3216   -5.3650    4.9201 O   0  0  0  0  0  0  0  0  0  0  0  0
    3.9457   -3.5913    6.2914 C   0  0  0  0  0  0  0  0  0  0  0  0
    3.6236   -3.7965    7.5896 C   0  0  0  0  0  0  0  0  0  0  0  0
    4.5528   -3.0315    8.4473 C   0  0  0  0  0  0  0  0  0  0  0  0
    4.5229   -3.0095    9.6617 O   0  0  0  0  0  0  0  0  0  0  0  0
    5.4368   -2.3630    7.6845 N   0  0  0  0  0  0  0  0  0  0  0  0
    5.1363   -2.6612    6.2793 C   0  0  1  0  0  0  0  0  0  0  0  0
    4.8885   -1.7421    5.7482 H   0  0  0  0  0  0  0  0  0  0  0  0
    6.3146   -3.3364    5.6261 C   0  0  0  0  0  0  0  0  0  0  0  0
    6.8531   -2.8172    4.5316 C   0  0  0  0  0  0  0  0  0  0  0  0
    8.0789   -3.4112    3.9577 C   0  0  0  0  0  0  0  0  0  0  0  0
    8.6686   -4.5219    4.5623 C   0  0  0  0  0  0  0  0  0  0  0  0
    9.8128   -5.0717    4.0217 C   0  0  0  0  0  0  0  0  0  0  0  0
   10.3757   -4.5237    2.8829 C   0  0  0  0  0  0  0  0  0  0  0  0
    9.7962   -3.4222    2.2790 C   0  0  0  0  0  0  0  0  0  0  0  0
    8.6482   -2.8671    2.8058 C   0  0  0  0  0  0  0  0  0  0  0  0
    2.6116   -4.5780    8.0322 O   0  5  0  0  0  0  0  0  0  0  0  0
    0.5556    3.1874    1.2404 H   0  0  0  0  0  0  0  0  0  0  0  0
   -1.0218    3.3075    0.4245 H   0  0  0  0  0  0  0  0  0  0  0  0
   -0.9439    2.9008    2.1556 H   0  0  0  0  0  0  0  0  0  0  0  0
   -1.3937    0.8828    0.7868 H   0  0  0  0  0  0  0  0  0  0  0  0
    0.1058    1.1694   -0.1285 H   0  0  0  0  0  0  0  0  0  0  0  0
    1.4223    0.9580    1.9622 H   0  0  0  0  0  0  0  0  0  0  0  0
   -0.0772    0.6714    2.8774 H   0  0  0  0  0  0  0  0  0  0  0  0
    1.6574   -0.0492    3.7813 H   0  0  0  0  0  0  0  0  0  0  0  0
    2.8836   -1.5016    5.3372 H   0  0  0  0  0  0  0  0  0  0  0  0
    2.0269   -4.8837    2.8360 H   0  0  0  0  0  0  0  0  0  0  0  0
    1.3240   -3.5594    0.1177 H   0  0  0  0  0  0  0  0  0  0  0  0
    0.3181   -4.6168    1.1367 H   0  0  0  0  0  0  0  0  0  0  0  0
   -0.2678   -2.9984    0.6830 H   0  0  0  0  0  0  0  0  0  0  0  0
    6.1493   -1.7889    8.0065 H   0  0  0  0  0  0  0  0  0  0  0  0
    6.7204   -4.2432    6.0496 H   0  0  0  0  0  0  0  0  0  0  0  0
    6.3961   -1.9602    4.0592 H   0  0  0  0  0  0  0  0  0  0  0  0
    8.2305   -4.9502    5.4517 H   0  0  0  0  0  0  0  0  0  0  0  0
   10.2701   -5.9314    4.4887 H   0  0  0  0  0  0  0  0  0  0  0  0
   11.2716   -4.9575    2.4639 H   0  0  0  0  0  0  0  0  0  0  0  0
   10.2409   -2.9986    1.3906 H   0  0  0  0  0  0  0  0  0  0  0  0
    8.1938   -2.0103    2.3304 H   0  0  0  0  0  0  0  0  0  0  0  0
  1  2  1  0  0  0  0
  1 30  1  0  0  0  0
  1 31  1  0  0  0  0
  1 32  1  0  0  0  0
  2  3  1  0  0  0  0
  2 33  1  0  0  0  0
  2 34  1  0  0  0  0
  3  4  1  0  0  0  0
  3 35  1  0  0  0  0
  3 36  1  0  0  0  0
  4  5  1  0  0  0  0
  5 10  2  0  0  0  0
  5  6  1  0  0  0  0
  6  7  2  0  0  0  0
  6 37  1  0  0  0  0
  7  8  1  0  0  0  0
  7 38  1  0  0  0  0
  8  9  2  0  0  0  0
  8 12  1  0  0  0  0
  9 10  1  0  0  0  0
  9 39  1  0  0  0  0
 10 11  1  0  0  0  0
 11 40  1  0  0  0  0
 11 41  1  0  0  0  0
 11 42  1  0  0  0  0
 12 13  2  0  0  0  0
 12 14  1  0  0  0  0
 14 19  1  0  0  0  0
 14 15  2  0  0  0  0
 15 16  1  0  0  0  0
 15 29  1  0  0  0  0
 16 17  2  0  0  0  0
 16 18  1  0  0  0  0
 18 19  1  0  0  0  0
 18 43  1  0  0  0  0
 19 20  1  6  0  0  0
 19 21  1  0  0  0  0
 21 22  2  0  0  0  0
 21 44  1  0  0  0  0
 22 23  1  0  0  0  0
 22 45  1  0  0  0  0
 23 28  2  0  0  0  0
 23 24  1  0  0  0  0
 24 25  2  0  0  0  0
 24 46  1  0  0  0  0
 25 26  1  0  0  0  0
 25 47  1  0  0  0  0
 26 27  2  0  0  0  0
 26 48  1  0  0  0  0
 27 28  1  0  0  0  0
 27 49  1  0  0  0  0
 28 50  1  0  0  0  0
M  CHG  1  29  -1
M  END
$$$$
ZINC09354134
 OpenBabel01252620473D

 61 64  0  0  1  0  0  0  0  0999 V2000
    2.7249   -2.4103   -4.0214 C   0  0  0  0  0  0  0  0  0  0  0  0
    2.0433   -1.8698   -2.7628 C   0  0  0  0  0  0  0  0  0  0  0  0
    0.6978   -1.2464   -3.1392 C   0  0  0  0  0  0  0  0  0  0  0  0
    0.0612   -0.7416   -1.9637 O   0  0  0  0  0  0  0  0  0  0  0  0
   -1.1525   -0.1515   -2.1243 C   0  0  0  0  0  0  0  0  0  0  0  0
   -1.7193   -0.0607   -3.3875 C   0  0  0  0  0  0  0  0  0  0  0  0
   -2.9531    0.5390   -3.5480 C   0  0  0  0  0  0  0  0  0  0  0  0
   -3.6258    1.0440   -2.4503 C   0  0  0  0  0  0  0  0  0  0  0  0
   -3.0608    0.9595   -1.1915 C   0  0  0  0  0  0  0  0  0  0  0  0
   -1.8269    0.3605   -1.0256 C   0  0  0  0  0  0  0  0  0  0  0  0
   -3.7943    1.5156    0.0018 C   0  0  1  0  0  0  0  0  0  0  0  0
   -3.3480    1.0852    0.9104 H   0  0  0  0  0  0  0  0  0  0  0  0
   -3.7304    3.0251   -0.0063 C   0  0  0  0  0  0  0  0  0  0  0  0
   -5.0068    3.4697   -0.0722 C   0  0  0  0  0  0  0  0  0  0  0  0
   -5.9230    2.3108   -0.1176 C   0  0  0  0  0  0  0  0  0  0  0  0
   -7.1341    2.3815   -0.1826 O   0  0  0  0  0  0  0  0  0  0  0  0
   -5.2178    1.1659   -0.0713 N   0  0  0  0  0  0  0  0  0  0  0  0
   -5.7727   -0.1898   -0.0901 C   0  0  0  0  0  0  0  0  0  0  0  0
   -6.0427   -0.6503    1.3438 C   0  0  0  0  0  0  0  0  0  0  0  0
   -7.0617    0.1673    1.9227 O   0  0  0  0  0  0  0  0  0  0  0  0
   -7.3914   -0.1810    3.2689 C   0  0  0  0  0  0  0  0  0  0  0  0
   -5.3843    4.7688   -0.0953 O   0  5  0  0  0  0  0  0  0  0  0  0
   -2.5191    3.8495    0.0524 C   0  0  0  0  0  0  0  0  0  0  0  0
   -2.2091    4.5439   -0.8977 O   0  0  0  0  0  0  0  0  0  0  0  0
   -1.6758    3.8370    1.2638 C   0  0  0  0  0  0  0  0  0  0  0  0
   -2.0631    3.0959    2.3847 C   0  0  0  0  0  0  0  0  0  0  0  0
   -1.2776    3.0867    3.5124 C   0  0  0  0  0  0  0  0  0  0  0  0
   -0.0829    3.8087    3.5482 C   0  0  0  0  0  0  0  0  0  0  0  0
    0.2975    4.5449    2.4292 C   0  0  0  0  0  0  0  0  0  0  0  0
   -0.4799    4.5621    1.2981 C   0  0  0  0  0  0  0  0  0  0  0  0
    1.6114    5.2218    2.7697 C   0  0  0  0  0  0  0  0  0  0  0  0
    1.6548    5.0774    4.3094 C   0  0  2  0  0  0  0  0  0  0  0  0
    2.6559    4.9259    4.7392 H   0  0  0  0  0  0  0  0  0  0  0  0
    0.8358    3.9198    4.5446 O   0  0  0  0  0  0  0  0  0  0  0  0
    1.0557    6.3117    4.9864 C   0  0  0  0  0  0  0  0  0  0  0  0
    3.6923   -2.8585   -3.7507 H   0  0  0  0  0  0  0  0  0  0  0  0
    2.8883   -1.5869   -4.7322 H   0  0  0  0  0  0  0  0  0  0  0  0
    2.0841   -3.1741   -4.4861 H   0  0  0  0  0  0  0  0  0  0  0  0
    1.8799   -2.6932   -2.0520 H   0  0  0  0  0  0  0  0  0  0  0  0
    2.6841   -1.1060   -2.2980 H   0  0  0  0  0  0  0  0  0  0  0  0
    0.8613   -0.4230   -3.8500 H   0  0  0  0  0  0  0  0  0  0  0  0
    0.0570   -2.0102   -3.6040 H   0  0  0  0  0  0  0  0  0  0  0  0
   -1.1961   -0.4583   -4.2445 H   0  0  0  0  0  0  0  0  0  0  0  0
   -3.3946    0.6103   -4.5311 H   0  0  0  0  0  0  0  0  0  0  0  0
   -4.5925    1.5086   -2.5773 H   0  0  0  0  0  0  0  0  0  0  0  0
   -1.3879    0.2907   -0.0413 H   0  0  0  0  0  0  0  0  0  0  0  0
   -6.7138   -0.1929   -0.6596 H   0  0  0  0  0  0  0  0  0  0  0  0
   -5.0541   -0.8736   -0.5657 H   0  0  0  0  0  0  0  0  0  0  0  0
   -6.3745   -1.6990    1.3357 H   0  0  0  0  0  0  0  0  0  0  0  0
   -5.1206   -0.5620    1.9371 H   0  0  0  0  0  0  0  0  0  0  0  0
   -8.1790    0.4917    3.6393 H   0  0  0  0  0  0  0  0  0  0  0  0
   -6.4975   -0.0829    3.9024 H   0  0  0  0  0  0  0  0  0  0  0  0
   -7.7514   -1.2199    3.3011 H   0  0  0  0  0  0  0  0  0  0  0  0
   -2.9841    2.5322    2.3655 H   0  0  0  0  0  0  0  0  0  0  0  0
   -1.5842    2.5137    4.3750 H   0  0  0  0  0  0  0  0  0  0  0  0
   -0.1691    5.1344    0.4365 H   0  0  0  0  0  0  0  0  0  0  0  0
    2.4357    4.6981    2.2634 H   0  0  0  0  0  0  0  0  0  0  0  0
    1.5819    6.2692    2.4348 H   0  0  0  0  0  0  0  0  0  0  0  0
    1.0970    6.1872    6.0785 H   0  0  0  0  0  0  0  0  0  0  0  0
    0.0089    6.4314    4.6703 H   0  0  0  0  0  0  0  0  0  0  0  0
    1.6305    7.2038    4.6971 H   0  0  0  0  0  0  0  0  0  0  0  0
  1  2  1  0  0  0  0
  1 36  1  0  0  0  0
  1 37  1  0  0  0  0
  1 38  1  0  0  0  0
  2  3  1  0  0  0  0
  2 39  1  0  0  0  0
  2 40  1  0  0  0  0
  3  4  1  0  0  0  0
  3 41  1  0  0  0  0
  3 42  1  0  0  0  0
  4  5  1  0  0  0  0
  5 10  2  0  0  0  0
  5  6  1  0  0  0  0
  6  7  2  0  0  0  0
  6 43  1  0  0  0  0
  7  8  1  0  0  0  0
  7 44  1  0  0  0  0
  8  9  2  0  0  0  0
  8 45  1  0  0  0  0
  9 10  1  0  0  0  0
  9 11  1  0  0  0  0
 10 46  1  0  0  0  0
 11 12  1  1  0  0  0
 11 17  1  0  0  0  0
 11 13  1  0  0  0  0
 13 14  2  0  0  0  0
 13 23  1  0  0  0  0
 14 15  1  0  0  0  0
 14 22  1  0  0  0  0
 15 16  2  0  0  0  0
 15 17  1  0  0  0  0
 17 18  1  0  0  0  0
 18 19  1  0  0  0  0
 18 47  1  0  0  0  0
 18 48  1  0  0  0  0
 19 20  1  0  0  0  0
 19 49  1  0  0  0  0
 19 50  1  0  0  0  0
 20 21  1  0  0  0  0
 21 51  1  0  0  0  0
 21 52  1  0  0  0  0
 21 53  1  0  0  0  0
 23 24  2  0  0  0  0
 23 25  1  0  0  0  0
 25 30  2  0  0  0  0
 25 26  1  0  0  0  0
 26 27  2  0  0  0  0
 26 54  1  0  0  0  0
 27 28  1  0  0  0  0
 27 55  1  0  0  0  0
 28 34  1  0  0  0  0
 28 29  2  0  0  0  0
 29 30  1  0  0  0  0
 29 31  1  0  0  0  0
 30 56  1  0  0  0  0
 31 32  1  0  0  0  0
 31 57  1  0  0  0  0
 31 58  1  0  0  0  0
 32 33  1  1  0  0  0
 32 34  1  0  0  0  0
 32 35  1  0  0  0  0
 35 59  1  0  0  0  0
 35 60  1  0  0  0  0
 35 61  1  0  0  0  0
M  CHG  1  22  -1
M  END
$$$$
ZINC40076300
 OpenBabel01252620473D

 73 75  0  0  1  0  0  0  0  0999 V2000
   -0.1598    1.6803   -0.9592 C   0  0  0  0  0  0  0  0  0  0  0  0
   -0.1102    0.1647   -0.7558 C   0  0  0  0  0  0  0  0  0  0  0  0
   -1.5345   -0.3936   -0.7318 C   0  0  0  0  0  0  0  0  0  0  0  0
   -1.4848   -1.9092   -0.5285 C   0  0  0  0  0  0  0  0  0  0  0  0
   -2.9091   -2.4675   -0.5044 C   0  0  0  0  0  0  0  0  0  0  0  0
   -2.8627   -3.8831   -0.3145 O   0  0  0  0  0  0  0  0  0  0  0  0
   -4.0530   -4.5393   -0.2692 C   0  0  0  0  0  0  0  0  0  0  0  0
   -5.2390   -3.8367   -0.4104 C   0  0  0  0  0  0  0  0  0  0  0  0
   -6.4481   -4.5053   -0.3646 C   0  0  0  0  0  0  0  0  0  0  0  0
   -6.4775   -5.8749   -0.1776 C   0  0  0  0  0  0  0  0  0  0  0  0
   -5.2980   -6.5817   -0.0357 C   0  0  0  0  0  0  0  0  0  0  0  0
   -4.0824   -5.9185   -0.0868 C   0  0  0  0  0  0  0  0  0  0  0  0
   -2.9209   -6.6132    0.0466 O   0  0  0  0  0  0  0  0  0  0  0  0
   -3.0218   -8.0363    0.1269 C   0  0  0  0  0  0  0  0  0  0  0  0
   -1.6330   -8.6335    0.3628 C   0  0  0  0  0  0  0  0  0  0  0  0
   -7.7984   -6.5987   -0.1280 C   0  0  2  0  0  0  0  0  0  0  0  0
   -7.6482   -7.6305    0.1896 H   0  0  0  0  0  0  0  0  0  0  0  0
   -8.4609   -6.5642   -1.4854 C   0  0  0  0  0  0  0  0  0  0  0  0
   -9.6397   -5.9175   -1.3284 C   0  0  0  0  0  0  0  0  0  0  0  0
   -9.7894   -5.5178    0.0869 C   0  0  0  0  0  0  0  0  0  0  0  0
  -10.7424   -4.9201    0.5457 O   0  0  0  0  0  0  0  0  0  0  0  0
   -8.7139   -5.9153    0.7933 N   0  0  0  0  0  0  0  0  0  0  0  0
   -8.4954   -5.7032    2.2263 C   0  0  0  0  0  0  0  0  0  0  0  0
   -7.7690   -4.3737    2.4401 C   0  0  0  0  0  0  0  0  0  0  0  0
   -8.6119   -3.2979    2.0229 O   0  0  0  0  0  0  0  0  0  0  0  0
   -8.0251   -2.0046    2.1814 C   0  0  0  0  0  0  0  0  0  0  0  0
   -9.0109   -0.9355    1.7057 C   0  0  0  0  0  0  0  0  0  0  0  0
  -10.1603   -0.9358    2.5548 O   0  0  0  0  0  0  0  0  0  0  0  0
  -10.5378   -5.6751   -2.3106 O   0  5  0  0  0  0  0  0  0  0  0  0
   -7.9295   -7.1229   -2.7321 C   0  0  0  0  0  0  0  0  0  0  0  0
   -7.6192   -6.3830   -3.6467 O   0  0  0  0  0  0  0  0  0  0  0  0
   -7.7706   -8.5857   -2.8781 C   0  0  0  0  0  0  0  0  0  0  0  0
   -8.2340   -9.4447   -1.8792 C   0  0  0  0  0  0  0  0  0  0  0  0
   -8.0829  -10.8082   -2.0221 C   0  0  0  0  0  0  0  0  0  0  0  0
   -7.4734  -11.3255   -3.1518 C   0  0  0  0  0  0  0  0  0  0  0  0
   -7.0120  -10.4799   -4.1454 C   0  0  0  0  0  0  0  0  0  0  0  0
   -7.1617   -9.1147   -4.0181 C   0  0  0  0  0  0  0  0  0  0  0  0
   -7.3110  -12.8163   -3.3003 C   0  0  0  0  0  0  0  0  0  0  0  0
    0.8549    2.0780   -0.9763 H   0  0  0  0  0  0  0  0  0  0  0  0
   -0.6538    1.9040   -1.9047 H   0  0  0  0  0  0  0  0  0  0  0  0
   -0.7160    2.1386   -0.1414 H   0  0  0  0  0  0  0  0  0  0  0  0
    0.4460   -0.2936   -1.5736 H   0  0  0  0  0  0  0  0  0  0  0  0
    0.3838   -0.0591    0.1897 H   0  0  0  0  0  0  0  0  0  0  0  0
   -2.0906    0.0647    0.0860 H   0  0  0  0  0  0  0  0  0  0  0  0
   -2.0284   -0.1699   -1.6774 H   0  0  0  0  0  0  0  0  0  0  0  0
   -0.9287   -2.3675   -1.3463 H   0  0  0  0  0  0  0  0  0  0  0  0
   -0.9909   -2.1330    0.4171 H   0  0  0  0  0  0  0  0  0  0  0  0
   -3.4652   -2.0092    0.3133 H   0  0  0  0  0  0  0  0  0  0  0  0
   -3.4030   -2.2438   -1.4500 H   0  0  0  0  0  0  0  0  0  0  0  0
   -5.2188   -2.7667   -0.5558 H   0  0  0  0  0  0  0  0  0  0  0  0
   -7.3718   -3.9566   -0.4747 H   0  0  0  0  0  0  0  0  0  0  0  0
   -5.3238   -7.6514    0.1106 H   0  0  0  0  0  0  0  0  0  0  0  0
   -3.6791   -8.3080    0.9529 H   0  0  0  0  0  0  0  0  0  0  0  0
   -3.4307   -8.4248   -0.8058 H   0  0  0  0  0  0  0  0  0  0  0  0
   -1.0011   -8.4369   -0.5033 H   0  0  0  0  0  0  0  0  0  0  0  0
   -1.1878   -8.1793    1.2480 H   0  0  0  0  0  0  0  0  0  0  0  0
   -1.7208   -9.7097    0.5118 H   0  0  0  0  0  0  0  0  0  0  0  0
   -9.4561   -5.6791    2.7407 H   0  0  0  0  0  0  0  0  0  0  0  0
   -7.8896   -6.5165    2.6258 H   0  0  0  0  0  0  0  0  0  0  0  0
   -7.5275   -4.2574    3.4966 H   0  0  0  0  0  0  0  0  0  0  0  0
   -6.8499   -4.3635    1.8541 H   0  0  0  0  0  0  0  0  0  0  0  0
   -7.7890   -1.8391    3.2326 H   0  0  0  0  0  0  0  0  0  0  0  0
   -7.1114   -1.9452    1.5900 H   0  0  0  0  0  0  0  0  0  0  0  0
   -8.5318    0.0429    1.7431 H   0  0  0  0  0  0  0  0  0  0  0  0
   -9.3155   -1.1520    0.6818 H   0  0  0  0  0  0  0  0  0  0  0  0
  -10.8291   -0.2811    2.3116 H   0  0  0  0  0  0  0  0  0  0  0  0
   -8.7092   -9.0423   -0.9968 H   0  0  0  0  0  0  0  0  0  0  0  0
   -8.4408  -11.4737   -1.2504 H   0  0  0  0  0  0  0  0  0  0  0  0
   -6.5369  -10.8902   -5.0243 H   0  0  0  0  0  0  0  0  0  0  0  0
   -6.8051   -8.4562   -4.7963 H   0  0  0  0  0  0  0  0  0  0  0  0
   -8.1417  -13.2161   -3.8820 H   0  0  0  0  0  0  0  0  0  0  0  0
   -6.3728  -13.0304   -3.8122 H   0  0  0  0  0  0  0  0  0  0  0  0
   -7.3011  -13.2808   -2.3143 H   0  0  0  0  0  0  0  0  0  0  0  0
  1  2  1  0  0  0  0
  1 39  1  0  0  0  0
  1 40  1  0  0  0  0
  1 41  1  0  0  0  0
  2  3  1  0  0  0  0
  2 42  1  0  0  0  0
  2 43  1  0  0  0  0
  3  4  1  0  0  0  0
  3 44  1  0  0  0  0
  3 45  1  0  0  0  0
  4  5  1  0  0  0  0
  4 46  1  0  0  0  0
  4 47  1  0  0  0  0
  5  6  1  0  0  0  0
  5 48  1  0  0  0  0
  5 49  1  0  0  0  0
  6  7  1  0  0  0  0
  7 12  2  0  0  0  0
  7  8  1  0  0  0  0
  8  9  2  0  0  0  0
  8 50  1  0  0  0  0
  9 10  1  0  0  0  0
  9 51  1  0  0  0  0
 10 11  2  0  0  0  0
 10 16  1  0  0  0  0
 11 12  1  0  0  0  0
 11 52  1  0  0  0  0
 12 13  1  0  0  0  0
 13 14  1  0  0  0  0
 14 15  1  0  0  0  0
 14 53  1  0  0  0  0
 14 54  1  0  0  0  0
 15 55  1  0  0  0  0
 15 56  1  0  0  0  0
 15 57  1  0  0  0  0
 16 17  1  1  0  0  0
 16 22  1  0  0  0  0
 16 18  1  0  0  0  0
 18 19  2  0  0  0  0
 18 30  1  0  0  0  0
 19 20  1  0  0  0  0
 19 29  1  0  0  0  0
 20 21  2  0  0  0  0
 20 22  1  0  0  0  0
 22 23  1  0  0  0  0
 23 24  1  0  0  0  0
 23 58  1  0  0  0  0
 23 59  1  0  0  0  0
 24 25  1  0  0  0  0
 24 60  1  0  0  0  0
 24 61  1  0  0  0  0
 25 26  1  0  0  0  0
 26 27  1  0  0  0  0
 26 62  1  0  0  0  0
 26 63  1  0  0  0  0
 27 28  1  0  0  0  0
 27 64  1  0  0  0  0
 27 65  1  0  0  0  0
 28 66  1  0  0  0  0
 30 31  2  0  0  0  0
 30 32  1  0  0  0  0
 32 37  2  0  0  0  0
 32 33  1  0  0  0  0
 33 34  2  0  0  0  0
 33 67  1  0  0  0  0
 34 35  1  0  0  0  0
 34 68  1  0  0  0  0
 35 36  2  0  0  0  0
 35 38  1  0  0  0  0
 36 37  1  0  0  0  0
 36 69  1  0  0  0  0
 37 70  1  0  0  0  0
 38 71  1  0  0  0  0
 38 72  1  0  0  0  0
 38 73  1  0  0  0  0
M  CHG  1  29  -1
M  END
$$$$
ZINC19752385
 OpenBabel01252620473D

 49 50  0  0  1  0  0  0  0  0999 V2000
   -1.7290   10.7514   -2.8679 C   0  0  0  0  0  0  0  0  0  0  0  0
   -0.7809   10.4412   -1.7078 C   0  0  0  0  0  0  0  0  0  0  0  0
   -0.9789    8.9914   -1.2610 C   0  0  0  0  0  0  0  0  0  0  0  0
   -0.0308    8.6812   -0.1009 C   0  0  1  0  0  0  0  0  0  0  0  0
   -0.1494    9.4136    0.7112 H   0  0  0  0  0  0  0  0  0  0  0  0
   -0.3105    7.2948    0.4195 C   0  0  0  0  0  0  0  0  0  0  0  0
    0.0371    6.1913   -0.1751 N   0  0  0  0  0  0  0  0  0  0  0  0
   -0.3694    5.1261    0.5638 C   0  0  0  0  0  0  0  0  0  0  0  0
   -0.2599    3.7420    0.3965 C   0  0  0  0  0  0  0  0  0  0  0  0
   -0.7875    2.8932    1.3463 C   0  0  0  0  0  0  0  0  0  0  0  0
   -1.4351    3.4079    2.4715 C   0  0  0  0  0  0  0  0  0  0  0  0
   -1.5445    4.7735    2.6491 C   0  0  0  0  0  0  0  0  0  0  0  0
   -1.0168    5.6385    1.6996 C   0  0  0  0  0  0  0  0  0  0  0  0
   -0.9637    7.0146    1.5802 N   0  0  0  0  0  0  0  0  0  0  0  0
   -1.5088    7.9903    2.5274 C   0  0  0  0  0  0  0  0  0  0  0  0
   -0.4428    8.3426    3.5669 C   0  0  1  0  0  0  0  0  0  0  0  0
    0.5019    8.6361    3.0859 H   0  0  0  0  0  0  0  0  0  0  0  0
   -0.9681    9.4519    4.4803 C   0  0  0  0  0  0  0  0  0  0  0  0
    0.0673    9.8618    5.3758 O   0  0  0  0  0  0  0  0  0  0  0  0
   -0.1392    7.1856    4.3487 O   0  0  0  0  0  0  0  0  0  0  0  0
   -1.9562    2.5607    3.3993 O   0  0  0  0  0  0  0  0  0  0  0  0
   -2.6056    3.1526    4.5263 C   0  0  0  0  0  0  0  0  0  0  0  0
   -0.6816    1.5467    1.1837 O   0  0  0  0  0  0  0  0  0  0  0  0
   -0.0127    1.0858    0.0080 C   0  0  0  0  0  0  0  0  0  0  0  0
    1.3590    8.7567   -0.5707 N   0  3  0  0  0  0  0  0  0  0  0  0
   -1.5866   11.7938   -3.1891 H   0  0  0  0  0  0  0  0  0  0  0  0
   -2.7691   10.6076   -2.5399 H   0  0  0  0  0  0  0  0  0  0  0  0
   -1.5129   10.0758   -3.7087 H   0  0  0  0  0  0  0  0  0  0  0  0
    0.2592   10.5850   -2.0358 H   0  0  0  0  0  0  0  0  0  0  0  0
   -0.9969   11.1168   -0.8670 H   0  0  0  0  0  0  0  0  0  0  0  0
   -2.0190    8.8476   -0.9330 H   0  0  0  0  0  0  0  0  0  0  0  0
   -0.7629    8.3158   -2.1018 H   0  0  0  0  0  0  0  0  0  0  0  0
    0.2361    3.3392   -0.4742 H   0  0  0  0  0  0  0  0  0  0  0  0
   -2.0428    5.1675    3.5226 H   0  0  0  0  0  0  0  0  0  0  0  0
   -1.8074    8.8999    1.9857 H   0  0  0  0  0  0  0  0  0  0  0  0
   -2.3859    7.5601    3.0330 H   0  0  0  0  0  0  0  0  0  0  0  0
   -1.2857   10.3100    3.8697 H   0  0  0  0  0  0  0  0  0  0  0  0
   -1.8252    9.0759    5.0583 H   0  0  0  0  0  0  0  0  0  0  0  0
   -0.1251   10.6556    6.1126 H   0  0  0  0  0  0  0  0  0  0  0  0
    0.6101    7.2456    5.1518 H   0  0  0  0  0  0  0  0  0  0  0  0
   -2.9780    2.3605    5.1926 H   0  0  0  0  0  0  0  0  0  0  0  0
   -3.4493    3.7685    4.1816 H   0  0  0  0  0  0  0  0  0  0  0  0
   -1.8894    3.7843    5.0721 H   0  0  0  0  0  0  0  0  0  0  0  0
    0.0022   -0.0141    0.0020 H   0  0  0  0  0  0  0  0  0  0  0  0
    1.0193    1.4665    0.0002 H   0  0  0  0  0  0  0  0  0  0  0  0
   -0.5447    1.4502   -0.8832 H   0  0  0  0  0  0  0  0  0  0  0  0
    2.0406    8.5337    0.2634 H   0  0  0  0  0  0  0  0  0  0  0  0
    1.5632    9.7686   -0.9506 H   0  0  0  0  0  0  0  0  0  0  0  0
    1.5139    8.0243   -1.3767 H   0  0  0  0  0  0  0  0  0  0  0  0
  1  2  1  0  0  0  0
  1 26  1  0  0  0  0
  1 27  1  0  0  0  0
  1 28  1  0  0  0  0
  2  3  1  0  0  0  0
  2 29  1  0  0  0  0
  2 30  1  0  0  0  0
  3  4  1  0  0  0  0
  3 31  1  0  0  0  0
  3 32  1  0  0  0  0
  4  5  1  1  0  0  0
  4  6  1  0  0  0  0
  4 25  1  0  0  0  0
  6 14  1  0  0  0  0
  6  7  2  0  0  0  0
  7  8  1  0  0  0  0
  8 13  2  0  0  0  0
  8  9  1  0  0  0  0
  9 10  2  0  0  0  0
  9 33  1  0  0  0  0
 10 11  1  0  0  0  0
 10 23  1  0  0  0  0
 11 12  2  0  0  0  0
 11 21  1  0  0  0  0
 12 13  1  0  0  0  0
 12 34  1  0  0  0  0
 13 14  1  0  0  0  0
 14 15  1  0  0  0  0
 15 16  1  0  0  0  0
 15 35  1  0  0  0  0
 15 36  1  0  0  0  0
 16 17  1  6  0  0  0
 16 18  1  0  0  0  0
 16 20  1  0  0  0  0
 18 19  1  0  0  0  0
 18 37  1  0  0  0  0
 18 38  1  0  0  0  0
 19 39  1  0  0  0  0
 20 40  1  0  0  0  0
 21 22  1  0  0  0  0
 22 41  1  0  0  0  0
 22 42  1  0  0  0  0
 22 43  1  0  0  0  0
 23 24  1  0  0  0  0
 24 44  1  0  0  0  0
 24 45  1  0  0  0  0
 24 46  1  0  0  0  0
 25 47  1  0  0  0  0
 25 48  1  0  0  0  0
 25 49  1  0  0  0  0
M  CHG  1  25   1
M  END
$$$$
ZINC64438320
 OpenBabel01252620473D

 29 31  0  0  1  0  0  0  0  0999 V2000
   -0.0167    1.3796    0.0096 C   0  0  0  0  0  0  0  0  0  0  0  0
    1.1662    2.0887    0.0021 C   0  0  0  0  0  0  0  0  0  0  0  0
    2.3855    1.4066   -0.0131 C   0  0  0  0  0  0  0  0  0  0  0  0
    2.3967    0.0095   -0.0207 C   0  0  0  0  0  0  0  0  0  0  0  0
    1.2059   -0.6864   -0.0130 C   0  0  0  0  0  0  0  0  0  0  0  0
    0.0021   -0.0041    0.0020 C   0  0  0  0  0  0  0  0  0  0  0  0
   -1.2948   -0.7716    0.0107 C   0  0  0  0  0  0  0  0  0  0  0  0
   -1.8320   -1.0704   -1.6959 S   0  0  0  0  0  0  0  0  0  0  0  0
   -3.3398   -1.9647   -1.5178 C   0  0  0  0  0  0  0  0  0  0  0  0
   -3.7414   -2.2099   -0.2983 N   0  0  0  0  0  0  0  0  0  0  0  0
   -4.9817   -2.9588   -0.0855 C   0  0  1  0  0  0  0  0  0  0  0  0
   -5.8404   -2.2928   -0.0016 H   0  0  0  0  0  0  0  0  0  0  0  0
   -5.0929   -3.8764   -1.3037 C   0  0  0  0  0  0  0  0  0  0  0  0
   -5.2657   -5.0579   -0.8429 N   0  0  0  0  0  0  0  0  0  0  0  0
   -5.1184   -5.0901    0.4965 C   0  0  0  0  0  0  0  0  0  0  0  0
   -4.9218   -3.8998    1.0324 N   0  0  0  0  0  0  0  0  0  0  0  0
   -4.8609   -3.3232   -2.6523 C   0  0  0  0  0  0  0  0  0  0  0  0
   -3.9741   -2.3273   -2.6556 N   0  0  0  0  0  0  0  0  0  0  0  0
   -5.4833   -3.7739   -3.7632 O   0  5  0  0  0  0  0  0  0  0  0  0
    3.6552    2.1581   -0.0217 C   0  0  0  0  0  0  0  0  0  0  0  0
    3.6420    3.3809   -0.0154 O   0  0  0  0  0  0  0  0  0  0  0  0
    4.7207    1.5581   -0.0350 O   0  0  0  0  0  1  0  0  0  0  0  0
   -0.9599    1.9055    0.0260 H   0  0  0  0  0  0  0  0  0  0  0  0
    1.1501    3.1686    0.0077 H   0  0  0  0  0  0  0  0  0  0  0  0
    3.3355   -0.5243   -0.0328 H   0  0  0  0  0  0  0  0  0  0  0  0
    1.2130   -1.7663   -0.0192 H   0  0  0  0  0  0  0  0  0  0  0  0
   -1.1491   -1.7253    0.5180 H   0  0  0  0  0  0  0  0  0  0  0  0
   -2.0556   -0.1936    0.5352 H   0  0  0  0  0  0  0  0  0  0  0  0
   -5.1658   -5.9988    1.0783 H   0  0  0  0  0  0  0  0  0  0  0  0
  1  6  2  0  0  0  0
  1  2  1  0  0  0  0
  1 23  1  0  0  0  0
  2  3  2  0  0  0  0
  2 24  1  0  0  0  0
  3  4  1  0  0  0  0
  3 20  1  0  0  0  0
  4  5  2  0  0  0  0
  4 25  1  0  0  0  0
  5  6  1  0  0  0  0
  5 26  1  0  0  0  0
  6  7  1  0  0  0  0
  7  8  1  0  0  0  0
  7 27  1  0  0  0  0
  7 28  1  0  0  0  0
  8  9  1  0  0  0  0
  9 18  1  0  0  0  0
  9 10  2  0  0  0  0
 10 11  1  0  0  0  0
 11 12  1  1  0  0  0
 11 16  1  0  0  0  0
 11 13  1  0  0  0  0
 13 14  2  0  0  0  0
 13 17  1  0  0  0  0
 14 15  1  0  0  0  0
 15 16  2  0  0  0  0
 15 29  1  0  0  0  0
 17 18  2  0  0  0  0
 17 19  1  0  0  0  0
 20 21  2  0  0  0  0
 20 22  1  0  0  0  0
M  CHG  1  19  -1
M  END
$$$$
ZINC47085038
 OpenBabel01252620473D

 42 44  0  0  0  0  0  0  0  0999 V2000
   -0.0173    1.4248    0.0099 C   0  0  0  0  0  0  0  0  0  0  0  0
    0.0021   -0.0041    0.0020 O   0  0  0  0  0  0  0  0  0  0  0  0
   -1.2011   -0.6379    0.0101 C   0  0  0  0  0  0  0  0  0  0  0  0
   -2.3743    0.0994    0.0195 C   0  0  0  0  0  0  0  0  0  0  0  0
   -3.5965   -0.5465    0.0272 C   0  0  0  0  0  0  0  0  0  0  0  0
   -3.6519   -1.9279    0.0261 C   0  0  0  0  0  0  0  0  0  0  0  0
   -2.4852   -2.6694    0.0172 C   0  0  0  0  0  0  0  0  0  0  0  0
   -1.2569   -2.0283    0.0032 C   0  0  0  0  0  0  0  0  0  0  0  0
   -0.1083   -2.7563   -0.0116 O   0  0  0  0  0  0  0  0  0  0  0  0
    0.4517   -3.1104    1.2545 C   0  0  0  0  0  0  0  0  0  0  0  0
   -2.5494   -4.1751    0.0165 C   0  0  0  0  0  0  0  0  0  0  0  0
   -2.3208   -4.6742    1.3748 N   0  0  0  0  0  0  0  0  0  0  0  0
   -2.3328   -6.0000    1.6165 C   0  0  0  0  0  0  0  0  0  0  0  0
   -2.5331   -6.7815    0.7077 O   0  0  0  0  0  0  0  0  0  0  0  0
   -2.1017   -6.5047    2.9899 C   0  0  0  0  0  0  0  0  0  0  0  0
   -1.8766   -5.5962    4.0357 C   0  0  0  0  0  0  0  0  0  0  0  0
   -1.6618   -6.0353    5.3065 C   0  0  0  0  0  0  0  0  0  0  0  0
   -1.6641   -7.4105    5.5803 C   0  0  0  0  0  0  0  0  0  0  0  0
   -1.8904   -8.3408    4.5322 C   0  0  0  0  0  0  0  0  0  0  0  0
   -2.1154   -7.8687    3.2310 C   0  0  0  0  0  0  0  0  0  0  0  0
   -1.8900   -9.6521    4.8109 N   0  0  0  0  0  0  0  0  0  0  0  0
   -1.6816  -10.0814    6.0462 C   0  0  0  0  0  0  0  0  0  0  0  0
   -1.4632   -9.2425    7.0724 N   0  0  0  0  0  0  0  0  0  0  0  0
   -1.3156   -9.6021    7.9611 H   0  0  0  0  0  0  0  0  0  0  0  0
   -1.4459   -7.9053    6.8837 C   0  0  0  0  0  0  0  0  0  0  0  0
   -1.2272   -7.0669    7.9117 O   0  5  0  0  0  0  0  0  0  0  0  0
   -1.6916  -11.7669    6.3463 S   0  0  0  0  0  0  0  0  0  0  0  0
    1.0053    1.8021    0.0021 H   0  0  0  0  0  0  0  0  0  0  0  0
   -0.5445    1.7859   -0.8732 H   0  0  0  0  0  0  0  0  0  0  0  0
   -0.5275    1.7763    0.9067 H   0  0  0  0  0  0  0  0  0  0  0  0
   -2.3338    1.1787    0.0211 H   0  0  0  0  0  0  0  0  0  0  0  0
   -4.5102    0.0294    0.0345 H   0  0  0  0  0  0  0  0  0  0  0  0
   -4.6086   -2.4288    0.0325 H   0  0  0  0  0  0  0  0  0  0  0  0
    0.6861   -2.2049    1.8142 H   0  0  0  0  0  0  0  0  0  0  0  0
   -0.2668   -3.7083    1.8151 H   0  0  0  0  0  0  0  0  0  0  0  0
    1.3630   -3.6881    1.0999 H   0  0  0  0  0  0  0  0  0  0  0  0
   -3.5321   -4.4967   -0.3282 H   0  0  0  0  0  0  0  0  0  0  0  0
   -1.7830   -4.5711   -0.6498 H   0  0  0  0  0  0  0  0  0  0  0  0
   -2.1609   -4.0504    2.1002 H   0  0  0  0  0  0  0  0  0  0  0  0
   -1.8735   -4.5359    3.8300 H   0  0  0  0  0  0  0  0  0  0  0  0
   -1.4895   -5.3257    6.1022 H   0  0  0  0  0  0  0  0  0  0  0  0
   -2.2938   -8.5628    2.4231 H   0  0  0  0  0  0  0  0  0  0  0  0
  1  2  1  0  0  0  0
  1 28  1  0  0  0  0
  1 29  1  0  0  0  0
  1 30  1  0  0  0  0
  2  3  1  0  0  0  0
  3  8  2  0  0  0  0
  3  4  1  0  0  0  0
  4  5  2  0  0  0  0
  4 31  1  0  0  0  0
  5  6  1  0  0  0  0
  5 32  1  0  0  0  0
  6  7  2  0  0  0  0
  6 33  1  0  0  0  0
  7  8  1  0  0  0  0
  7 11  1  0  0  0  0
  8  9  1  0  0  0  0
  9 10  1  0  0  0  0
 10 34  1  0  0  0  0
 10 35  1  0  0  0  0
 10 36  1  0  0  0  0
 11 12  1  0  0  0  0
 11 37  1  0  0  0  0
 11 38  1  0  0  0  0
 12 13  1  0  0  0  0
 12 39  1  0  0  0  0
 13 14  2  0  0  0  0
 13 15  1  0  0  0  0
 15 20  2  0  0  0  0
 15 16  1  0  0  0  0
 16 17  2  0  0  0  0
 16 40  1  0  0  0  0
 17 18  1  0  0  0  0
 17 41  1  0  0  0  0
 18 25  2  0  0  0  0
 18 19  1  0  0  0  0
 19 20  1  0  0  0  0
 19 21  2  0  0  0  0
 20 42  1  0  0  0  0
 21 22  1  0  0  0  0
 22 23  1  0  0  0  0
 22 27  2  0  0  0  0
 23 24  1  0  0  0  0
 23 25  1  0  0  0  0
 25 26  1  0  0  0  0
M  CHG  1  26  -1
M  END
$$$$
ZINC64610606
 OpenBabel01252620473D

 42 43  0  0  1  0  0  0  0  0999 V2000
    1.4178    1.6247    2.1190 C   0  0  0  0  0  0  0  0  0  0  0  0
    1.1425    0.2525    1.5008 C   0  0  0  0  0  0  0  0  0  0  0  0
    1.4291   -1.0386    2.7424 S   0  0  0  0  0  0  0  0  0  0  0  0
    2.8115   -1.1111    3.0630 O   0  0  0  0  0  0  0  0  0  0  0  0
    0.4506   -0.9557    3.7695 O   0  0  0  0  0  0  0  0  0  0  0  0
    1.0805   -2.5522    1.9105 C   0  0  0  0  0  0  0  0  0  0  0  0
   -0.2031   -3.0664    1.9231 C   0  0  0  0  0  0  0  0  0  0  0  0
   -0.4825   -4.2537    1.2726 C   0  0  0  0  0  0  0  0  0  0  0  0
    0.5246   -4.9322    0.6056 C   0  0  0  0  0  0  0  0  0  0  0  0
    1.8178   -4.4147    0.5921 C   0  0  0  0  0  0  0  0  0  0  0  0
    2.0894   -3.2197    1.2424 C   0  0  0  0  0  0  0  0  0  0  0  0
    2.8404   -5.0964   -0.0809 N   0  0  0  0  0  0  0  0  0  0  0  0
    3.8133   -4.4046   -0.7064 C   0  0  0  0  0  0  0  0  0  0  0  0
    3.8495   -3.1954   -0.6194 O   0  0  0  0  0  0  0  0  0  0  0  0
    4.8561   -5.1336   -1.5140 C   0  0  0  0  0  0  0  0  0  0  0  0
    5.8351   -4.1225   -2.1142 C   0  0  1  0  0  0  0  0  0  0  0  0
    6.9588   -4.8852   -2.8144 C   0  0  0  0  0  0  0  0  0  0  0  0
    6.5905   -5.1415   -4.3025 C   0  0  0  0  0  0  0  0  0  0  0  0
    5.7901   -3.5263   -4.7038 S   0  0  0  0  0  0  0  0  0  0  0  0
    5.0571   -3.1780   -3.0511 C   0  0  0  0  0  0  0  0  0  0  0  0
    6.4326   -3.3085   -0.9955 C   0  0  0  0  0  0  0  0  0  0  0  0
    6.1120   -3.5319    0.1595 O   0  0  0  0  0  0  0  0  0  0  0  0
    7.2365   -2.4266   -1.2453 O   0  0  0  0  0  1  0  0  0  0  0  0
    0.2515   -6.1007   -0.0340 O   0  0  0  0  0  0  0  0  0  0  0  0
    2.4529    1.6696    2.4575 H   0  0  0  0  0  0  0  0  0  0  0  0
    1.2456    2.4004    1.3729 H   0  0  0  0  0  0  0  0  0  0  0  0
    0.7511    1.7816    2.9668 H   0  0  0  0  0  0  0  0  0  0  0  0
    0.1074    0.2076    1.1622 H   0  0  0  0  0  0  0  0  0  0  0  0
    1.8092    0.0955    0.6529 H   0  0  0  0  0  0  0  0  0  0  0  0
   -0.9894   -2.5390    2.4428 H   0  0  0  0  0  0  0  0  0  0  0  0
   -1.4861   -4.6527    1.2846 H   0  0  0  0  0  0  0  0  0  0  0  0
    3.0900   -2.8134    1.2302 H   0  0  0  0  0  0  0  0  0  0  0  0
    2.8481   -6.0663   -0.0965 H   0  0  0  0  0  0  0  0  0  0  0  0
    5.3980   -5.8248   -0.8685 H   0  0  0  0  0  0  0  0  0  0  0  0
    4.3711   -5.6899   -2.3162 H   0  0  0  0  0  0  0  0  0  0  0  0
    7.8769   -4.2996   -2.7658 H   0  0  0  0  0  0  0  0  0  0  0  0
    7.1144   -5.8398   -2.3118 H   0  0  0  0  0  0  0  0  0  0  0  0
    7.4808   -5.3054   -4.9096 H   0  0  0  0  0  0  0  0  0  0  0  0
    5.8876   -5.9686   -4.4010 H   0  0  0  0  0  0  0  0  0  0  0  0
    3.9939   -3.4183   -3.0434 H   0  0  0  0  0  0  0  0  0  0  0  0
    5.2194   -2.1375   -2.7698 H   0  0  0  0  0  0  0  0  0  0  0  0
   -0.0147   -5.9909   -0.9571 H   0  0  0  0  0  0  0  0  0  0  0  0
  1  2  1  0  0  0  0
  1 25  1  0  0  0  0
  1 26  1  0  0  0  0
  1 27  1  0  0  0  0
  2  3  1  0  0  0  0
  2 28  1  0  0  0  0
  2 29  1  0  0  0  0
  3  4  2  0  0  0  0
  3  5  2  0  0  0  0
  3  6  1  0  0  0  0
  6 11  2  0  0  0  0
  6  7  1  0  0  0  0
  7  8  2  0  0  0  0
  7 30  1  0  0  0  0
  8  9  1  0  0  0  0
  8 31  1  0  0  0  0
  9 10  2  0  0  0  0
  9 24  1  0  0  0  0
 10 11  1  0  0  0  0
 10 12  1  0  0  0  0
 11 32  1  0  0  0  0
 12 13  1  0  0  0  0
 12 33  1  0  0  0  0
 13 14  2  0  0  0  0
 13 15  1  0  0  0  0
 15 16  1  0  0  0  0
 15 34  1  0  0  0  0
 15 35  1  0  0  0  0
 16 20  1  0  0  0  0
 16 17  1  0  0  0  0
 16 21  1  1  0  0  0
 17 18  1  0  0  0  0
 17 36  1  0  0  0  0
 17 37  1  0  0  0  0
 18 19  1  0  0  0  0
 18 38  1  0  0  0  0
 18 39  1  0  0  0  0
 19 20  1  0  0  0  0
 20 40  1  0  0  0  0
 20 41  1  0  0  0  0
 21 22  2  0  0  0  0
 21 23  1  0  0  0  0
 24 42  1  0  0  0  0
M  END
$$$$
ZINC04557127
 OpenBabel01252620473D

 57 59  0  0  1  0  0  0  0  0999 V2000
   -9.8822    5.9678    1.0512 C   0  0  0  0  0  0  0  0  0  0  0  0
   -9.7479    5.1176   -0.1858 C   0  0  0  0  0  0  0  0  0  0  0  0
  -10.8467    4.6700   -0.8474 C   0  0  0  0  0  0  0  0  0  0  0  0
  -10.6947    3.8755   -2.0024 C   0  0  0  0  0  0  0  0  0  0  0  0
  -11.6883    3.4809   -2.5860 O   0  0  0  0  0  0  0  0  0  0  0  0
   -9.4833    3.5425   -2.4749 O   0  0  0  0  0  0  0  0  0  0  0  0
   -8.3513    3.9547   -1.8651 C   0  0  0  0  0  0  0  0  0  0  0  0
   -8.4295    4.7510   -0.7070 C   0  0  0  0  0  0  0  0  0  0  0  0
   -7.2589    5.1792   -0.0710 C   0  0  0  0  0  0  0  0  0  0  0  0
   -6.0426    4.8196   -0.5754 C   0  0  0  0  0  0  0  0  0  0  0  0
   -5.9588    4.0360   -1.7244 C   0  0  0  0  0  0  0  0  0  0  0  0
   -7.1076    3.6024   -2.3663 C   0  0  0  0  0  0  0  0  0  0  0  0
   -4.7417    3.6899   -2.2159 O   0  0  0  0  0  0  0  0  0  0  0  0
   -3.5962    4.1688   -1.5083 C   0  0  2  0  0  0  0  0  0  0  0  0
   -2.3241    3.6805   -2.2061 C   0  0  0  0  0  0  0  0  0  0  0  0
   -1.1024    4.1469   -1.4084 C   0  0  1  0  0  0  0  0  0  0  0  0
   -1.0672    5.2363   -1.3991 H   0  0  0  0  0  0  0  0  0  0  0  0
   -1.2145    3.6256    0.0275 C   0  0  1  0  0  0  0  0  0  0  0  0
   -0.3764    3.9980    0.6167 H   0  0  0  0  0  0  0  0  0  0  0  0
   -2.5294    4.1160    0.6390 C   0  0  1  0  0  0  0  0  0  0  0  0
   -2.5265    5.2052    0.6819 H   0  0  0  0  0  0  0  0  0  0  0  0
   -3.6227    3.6738   -0.1680 O   0  0  0  0  0  0  0  0  0  0  0  0
   -2.6771    3.5499    2.0528 C   0  0  1  0  0  0  0  0  0  0  0  0
   -1.8929    3.9571    2.6910 H   0  0  0  0  0  0  0  0  0  0  0  0
   -4.0458    3.9369    2.6167 C   0  0  1  0  0  0  0  0  0  0  0  0
   -4.8300    3.5298    1.9785 H   0  0  0  0  0  0  0  0  0  0  0  0
   -4.1934    3.3709    4.0304 C   0  0  0  0  0  0  0  0  0  0  0  0
   -5.5131    3.6318    4.5126 O   0  0  0  0  0  0  0  0  0  0  0  0
   -4.1579    5.3609    2.6596 O   0  0  0  0  0  0  0  0  0  0  0  0
   -2.5650    2.1260    2.0099 O   0  0  0  0  0  0  0  0  0  0  0  0
   -1.1946    2.1607    0.0195 N   0  0  0  0  0  0  0  0  0  0  0  0
   -0.0184    1.5028    0.0103 C   0  0  0  0  0  0  0  0  0  0  0  0
    1.0236    2.1234    0.0037 O   0  0  0  0  0  0  0  0  0  0  0  0
    0.0021   -0.0041    0.0020 C   0  0  0  0  0  0  0  0  0  0  0  0
    0.0869    3.6337   -2.0119 O   0  0  0  0  0  0  0  0  0  0  0  0
   -3.6116    5.6756   -1.4882 C   0  0  0  0  0  0  0  0  0  0  0  0
   -4.5551    6.2763   -1.9452 O   0  0  0  0  0  0  0  0  0  0  0  0
   -9.9090    7.0199    0.7678 H   0  0  0  0  0  0  0  0  0  0  0  0
  -10.8038    5.7083    1.5722 H   0  0  0  0  0  0  0  0  0  0  0  0
   -9.0309    5.7901    1.7084 H   0  0  0  0  0  0  0  0  0  0  0  0
  -11.8341    4.9224   -0.4900 H   0  0  0  0  0  0  0  0  0  0  0  0
   -7.3177    5.7902    0.8176 H   0  0  0  0  0  0  0  0  0  0  0  0
   -5.1392    5.1471   -0.0824 H   0  0  0  0  0  0  0  0  0  0  0  0
   -7.0344    2.9922   -3.2544 H   0  0  0  0  0  0  0  0  0  0  0  0
   -2.2802    4.0931   -3.2140 H   0  0  0  0  0  0  0  0  0  0  0  0
   -2.3317    2.5917   -2.2572 H   0  0  0  0  0  0  0  0  0  0  0  0
   -4.0198    2.2950    4.0110 H   0  0  0  0  0  0  0  0  0  0  0  0
   -3.4657    3.8445    4.6893 H   0  0  0  0  0  0  0  0  0  0  0  0
   -5.6784    3.2999    5.4057 H   0  0  0  0  0  0  0  0  0  0  0  0
   -3.4901    5.7916    3.2106 H   0  0  0  0  0  0  0  0  0  0  0  0
   -3.2328    1.6953    1.4588 H   0  0  0  0  0  0  0  0  0  0  0  0
   -2.0280    1.6644    0.0207 H   0  0  0  0  0  0  0  0  0  0  0  0
    1.0345   -0.3534   -0.0097 H   0  0  0  0  0  0  0  0  0  0  0  0
   -0.4983   -0.3791    0.8948 H   0  0  0  0  0  0  0  0  0  0  0  0
   -0.5153   -0.3696   -0.8850 H   0  0  0  0  0  0  0  0  0  0  0  0
    0.2218    3.9241   -2.9243 H   0  0  0  0  0  0  0  0  0  0  0  0
   -2.5771    6.3503   -0.9625 O   0  0  0  0  0  1  0  0  0  0  0  0
  1  2  1  0  0  0  0
  1 38  1  0  0  0  0
  1 39  1  0  0  0  0
  1 40  1  0  0  0  0
  2  8  1  0  0  0  0
  2  3  2  0  0  0  0
  3  4  1  0  0  0  0
  3 41  1  0  0  0  0
  4  5  2  0  0  0  0
  4  6  1  0  0  0  0
  6  7  1  0  0  0  0
  7 12  2  0  0  0  0
  7  8  1  0  0  0  0
  8  9  2  0  0  0  0
  9 10  1  0  0  0  0
  9 42  1  0  0  0  0
 10 11  2  0  0  0  0
 10 43  1  0  0  0  0
 11 12  1  0  0  0  0
 11 13  1  0  0  0  0
 12 44  1  0  0  0  0
 14 13  1  6  0  0  0
 14 22  1  0  0  0  0
 14 15  1  0  0  0  0
 14 36  1  0  0  0  0
 15 16  1  0  0  0  0
 15 45  1  0  0  0  0
 15 46  1  0  0  0  0
 16 17  1  1  0  0  0
 16 18  1  0  0  0  0
 16 35  1  0  0  0  0
 18 19  1  1  0  0  0
 18 20  1  0  0  0  0
 18 31  1  0  0  0  0
 20 21  1  1  0  0  0
 20 22  1  0  0  0  0
 20 23  1  0  0  0  0
 23 24  1  1  0  0  0
 23 25  1  0  0  0  0
 23 30  1  0  0  0  0
 25 26  1  6  0  0  0
 25 27  1  0  0  0  0
 25 29  1  0  0  0  0
 27 28  1  0  0  0  0
 27 47  1  0  0  0  0
 27 48  1  0  0  0  0
 28 49  1  0  0  0  0
 29 50  1  0  0  0  0
 30 51  1  0  0  0  0
 31 32  1  0  0  0  0
 31 52  1  0  0  0  0
 32 33  2  0  0  0  0
 32 34  1  0  0  0  0
 34 53  1  0  0  0  0
 34 54  1  0  0  0  0
 34 55  1  0  0  0  0
 35 56  1  0  0  0  0
 36 37  2  0  0  0  0
 36 57  1  0  0  0  0
M  END
$$$$
ZINC62920655
 OpenBabel01252620473D

 35 36  0  0  1  0  0  0  0  0999 V2000
    0.4317    1.5471    0.3140 C   0  0  0  0  0  0  0  0  0  0  0  0
    0.2437    0.0346    0.1802 C   0  0  0  0  0  0  0  0  0  0  0  0
   -1.2462   -0.3035    0.2630 C   0  0  0  0  0  0  0  0  0  0  0  0
   -1.4342   -1.8160    0.1291 C   0  0  2  0  0  0  0  0  0  0  0  0
   -2.9271   -2.1874    0.2835 C   0  0  0  0  0  0  0  0  0  0  0  0
   -2.8723   -3.4978    1.1085 C   0  0  0  0  0  0  0  0  0  0  0  0
   -1.7555   -3.2589    2.0516 N   0  0  0  0  0  0  0  0  0  0  0  0
   -0.7191   -2.5479    1.2800 C   0  0  0  0  0  0  0  0  0  0  0  0
   -1.6986   -3.6171    3.3497 C   0  0  0  0  0  0  0  0  0  0  0  0
   -0.7112   -3.3541    4.0107 O   0  0  0  0  0  0  0  0  0  0  0  0
   -2.8266   -4.3238    3.9656 C   0  0  0  0  0  0  0  0  0  0  0  0
   -3.0100   -4.5470    5.3139 C   0  0  0  0  0  0  0  0  0  0  0  0
   -4.2095   -5.2529    5.4544 C   0  0  0  0  0  0  0  0  0  0  0  0
   -4.7263   -5.4444    4.2164 C   0  0  0  0  0  0  0  0  0  0  0  0
   -3.8974   -4.8798    3.3033 N   0  0  0  0  0  0  0  0  0  0  0  0
   -4.0352   -4.8712    2.3432 H   0  0  0  0  0  0  0  0  0  0  0  0
   -4.9111   -5.7890    6.9491 Cl  0  0  0  0  0  0  0  0  0  0  0  0
   -0.9088   -2.2922   -1.2006 C   0  0  0  0  0  0  0  0  0  0  0  0
    0.2614   -2.1141   -1.4930 O   0  0  0  0  0  0  0  0  0  0  0  0
   -1.6540   -2.8556   -1.9841 O   0  0  0  0  0  1  0  0  0  0  0  0
    1.4931    1.7879    0.2550 H   0  0  0  0  0  0  0  0  0  0  0  0
   -0.1008    2.0521   -0.4918 H   0  0  0  0  0  0  0  0  0  0  0  0
    0.0367    1.8787    1.2743 H   0  0  0  0  0  0  0  0  0  0  0  0
    0.6387   -0.2971   -0.7801 H   0  0  0  0  0  0  0  0  0  0  0  0
    0.7762   -0.4705    0.9860 H   0  0  0  0  0  0  0  0  0  0  0  0
   -1.6411    0.0281    1.2233 H   0  0  0  0  0  0  0  0  0  0  0  0
   -1.7787    0.2016   -0.5429 H   0  0  0  0  0  0  0  0  0  0  0  0
   -3.4638   -1.4106    0.8281 H   0  0  0  0  0  0  0  0  0  0  0  0
   -3.3838   -2.3633   -0.6905 H   0  0  0  0  0  0  0  0  0  0  0  0
   -3.8063   -3.6512    1.6492 H   0  0  0  0  0  0  0  0  0  0  0  0
   -2.6557   -4.3495    0.4636 H   0  0  0  0  0  0  0  0  0  0  0  0
   -0.0012   -3.2621    0.8766 H   0  0  0  0  0  0  0  0  0  0  0  0
   -0.2098   -1.8266    1.9191 H   0  0  0  0  0  0  0  0  0  0  0  0
   -2.3514   -4.2358    6.1113 H   0  0  0  0  0  0  0  0  0  0  0  0
   -5.6493   -5.9590    3.9935 H   0  0  0  0  0  0  0  0  0  0  0  0
  1  2  1  0  0  0  0
  1 21  1  0  0  0  0
  1 22  1  0  0  0  0
  1 23  1  0  0  0  0
  2  3  1  0  0  0  0
  2 24  1  0  0  0  0
  2 25  1  0  0  0  0
  3  4  1  0  0  0  0
  3 26  1  0  0  0  0
  3 27  1  0  0  0  0
  4  8  1  0  0  0  0
  4  5  1  0  0  0  0
  4 18  1  6  0  0  0
  5  6  1  0  0  0  0
  5 28  1  0  0  0  0
  5 29  1  0  0  0  0
  6  7  1  0  0  0  0
  6 30  1  0  0  0  0
  6 31  1  0  0  0  0
  7  8  1  0  0  0  0
  7  9  1  0  0  0  0
  8 32  1  0  0  0  0
  8 33  1  0  0  0  0
  9 10  2  0  0  0  0
  9 11  1  0  0  0  0
 11 15  1  0  0  0  0
 11 12  2  0  0  0  0
 12 13  1  0  0  0  0
 12 34  1  0  0  0  0
 13 14  2  0  0  0  0
 13 17  1  0  0  0  0
 14 15  1  0  0  0  0
 14 35  1  0  0  0  0
 15 16  1  0  0  0  0
 18 19  2  0  0  0  0
 18 20  1  0  0  0  0
M  END
$$$$
ZINC38619481
 OpenBabel01252620473D

 50 53  0  0  0  0  0  0  0  0999 V2000
    0.5809   -2.8267    2.4231 C   0  0  0  0  0  0  0  0  0  0  0  0
    0.1111   -2.1190    1.1783 C   0  0  0  0  0  0  0  0  0  0  0  0
    0.0306   -2.7968   -0.0325 C   0  0  0  0  0  0  0  0  0  0  0  0
   -0.4307   -2.0724   -1.2181 C   0  0  0  0  0  0  0  0  0  0  0  0
   -0.5102   -2.6449   -2.2903 O   0  0  0  0  0  0  0  0  0  0  0  0
   -0.7674   -0.7726   -1.1212 N   0  0  0  0  0  0  0  0  0  0  0  0
   -0.6883   -0.1142    0.0589 C   0  0  0  0  0  0  0  0  0  0  0  0
   -0.2592   -0.7617    1.2229 C   0  0  0  0  0  0  0  0  0  0  0  0
   -0.1902   -0.0262    2.4853 C   0  0  0  0  0  0  0  0  0  0  0  0
    0.0650   -0.6133    3.5165 O   0  0  0  0  0  0  0  0  0  0  0  0
   -0.4360    1.4604    2.5057 C   0  0  0  0  0  0  0  0  0  0  0  0
   -0.3823    1.9665    3.9485 C   0  0  0  0  0  0  0  0  0  0  0  0
   -0.6212    3.4118    3.9683 N   0  0  0  0  0  0  0  0  0  0  0  0
    0.4017    4.2422    3.8642 C   0  0  0  0  0  0  0  0  0  0  0  0
    1.5401    3.8242    3.7517 O   0  0  0  0  0  0  0  0  0  0  0  0
    0.1321    5.6443    3.8872 C   0  0  0  0  0  0  0  0  0  0  0  0
    0.9961    6.6954    3.7983 C   0  0  0  0  0  0  0  0  0  0  0  0
    0.5046    8.0206    3.8435 C   0  0  0  0  0  0  0  0  0  0  0  0
    1.2060    9.2194    3.7647 C   0  0  0  0  0  0  0  0  0  0  0  0
    0.4433   10.3604    3.8387 C   0  0  0  0  0  0  0  0  0  0  0  0
   -0.9007   10.2477    3.9793 C   0  0  0  0  0  0  0  0  0  0  0  0
   -1.1764    8.5908    4.0087 S   0  0  0  0  0  0  0  0  0  0  0  0
   -1.6467    5.6464    4.0642 S   0  0  0  0  0  0  0  0  0  0  0  0
   -1.8849    3.8761    4.0873 C   0  0  0  0  0  0  0  0  0  0  0  0
   -3.3440    2.9917    4.2275 S   0  0  0  0  0  0  0  0  0  0  0  0
   -1.0340    1.1853    0.1149 O   0  5  0  0  0  0  0  0  0  0  0  0
   -1.2273   -0.0577   -2.3144 C   0  0  0  0  0  0  0  0  0  0  0  0
   -2.7248   -0.1817   -2.4283 C   0  0  0  0  0  0  0  0  0  0  0  0
   -3.6267    0.6658   -1.9012 C   0  0  0  0  0  0  0  0  0  0  0  0
   -4.9050    0.1720   -2.2491 C   0  0  0  0  0  0  0  0  0  0  0  0
   -4.7078   -0.9477   -2.9679 C   0  0  0  0  0  0  0  0  0  0  0  0
   -3.3853   -1.1539   -3.0782 O   0  0  0  0  0  0  0  0  0  0  0  0
    0.3929   -4.1795   -0.1188 C   0  0  0  0  0  0  0  0  0  0  0  0
    0.6804   -5.2764   -0.1873 N   0  0  0  0  0  0  0  0  0  0  0  0
   -0.2818   -3.1823    2.9864 H   0  0  0  0  0  0  0  0  0  0  0  0
    1.2075   -3.6740    2.1448 H   0  0  0  0  0  0  0  0  0  0  0  0
    1.1569   -2.1355    3.0385 H   0  0  0  0  0  0  0  0  0  0  0  0
    0.3301    1.9634    1.9155 H   0  0  0  0  0  0  0  0  0  0  0  0
   -1.4179    1.6722    2.0826 H   0  0  0  0  0  0  0  0  0  0  0  0
   -1.1483    1.4635    4.5387 H   0  0  0  0  0  0  0  0  0  0  0  0
    0.5997    1.7548    4.3716 H   0  0  0  0  0  0  0  0  0  0  0  0
    2.0559    6.5158    3.6933 H   0  0  0  0  0  0  0  0  0  0  0  0
    2.2798    9.2515    3.6530 H   0  0  0  0  0  0  0  0  0  0  0  0
    0.9082   11.3338    3.7859 H   0  0  0  0  0  0  0  0  0  0  0  0
   -1.6286   11.0422    4.0516 H   0  0  0  0  0  0  0  0  0  0  0  0
   -0.9548    0.9947   -2.2350 H   0  0  0  0  0  0  0  0  0  0  0  0
   -0.7587   -0.4886   -3.1992 H   0  0  0  0  0  0  0  0  0  0  0  0
   -3.4149    1.5529   -1.3227 H   0  0  0  0  0  0  0  0  0  0  0  0
   -5.8571    0.6096   -1.9875 H   0  0  0  0  0  0  0  0  0  0  0  0
   -5.4817   -1.5727   -3.3885 H   0  0  0  0  0  0  0  0  0  0  0  0
  1  2  1  0  0  0  0
  1 35  1  0  0  0  0
  1 36  1  0  0  0  0
  1 37  1  0  0  0  0
  2  8  1  0  0  0  0
  2  3  2  0  0  0  0
  3  4  1  0  0  0  0
  3 33  1  0  0  0  0
  4  5  2  0  0  0  0
  4  6  1  0  0  0  0
  6  7  1  0  0  0  0
  6 27  1  0  0  0  0
  7  8  2  0  0  0  0
  7 26  1  0  0  0  0
  8  9  1  0  0  0  0
  9 10  2  0  0  0  0
  9 11  1  0  0  0  0
 11 12  1  0  0  0  0
 11 38  1  0  0  0  0
 11 39  1  0  0  0  0
 12 13  1  0  0  0  0
 12 40  1  0  0  0  0
 12 41  1  0  0  0  0
 13 24  1  0  0  0  0
 13 14  1  0  0  0  0
 14 15  2  0  0  0  0
 14 16  1  0  0  0  0
 16 17  2  0  0  0  0
 16 23  1  0  0  0  0
 17 18  1  0  0  0  0
 17 42  1  0  0  0  0
 18 22  1  0  0  0  0
 18 19  2  0  0  0  0
 19 20  1  0  0  0  0
 19 43  1  0  0  0  0
 20 21  2  0  0  0  0
 20 44  1  0  0  0  0
 21 22  1  0  0  0  0
 21 45  1  0  0  0  0
 23 24  1  0  0  0  0
 24 25  2  0  0  0  0
 27 28  1  0  0  0  0
 27 46  1  0  0  0  0
 27 47  1  0  0  0  0
 28 32  1  0  0  0  0
 28 29  2  0  0  0  0
 29 30  1  0  0  0  0
 29 48  1  0  0  0  0
 30 31  2  0  0  0  0
 30 49  1  0  0  0  0
 31 32  1  0  0  0  0
 31 50  1  0  0  0  0
 33 34  3  0  0  0  0
M  CHG  1  26  -1
M  END
$$$$
ZINC13051317
 OpenBabel01252620473D

 52 54  0  0  1  0  0  0  0  0999 V2000
   -0.7935    1.5780    2.9356 C   0  0  0  0  0  0  0  0  0  0  0  0
   -1.4316    1.8922    1.5810 C   0  0  1  0  0  0  0  0  0  0  0  0
   -1.5545    2.9704    1.4786 H   0  0  0  0  0  0  0  0  0  0  0  0
   -0.5294    1.3729    0.4596 C   0  0  0  0  0  0  0  0  0  0  0  0
   -1.0794    1.7777   -0.8365 N   0  0  0  0  0  0  0  0  0  0  0  0
   -0.7048    2.9559   -1.3859 C   0  0  0  0  0  0  0  0  0  0  0  0
    0.0838    3.6921   -0.8225 O   0  0  0  0  0  0  0  0  0  0  0  0
   -1.2859    3.3153   -2.6893 C   0  0  0  0  0  0  0  0  0  0  0  0
   -0.9599    4.5090   -3.3322 C   0  0  0  0  0  0  0  0  0  0  0  0
   -1.5215    4.8063   -4.5406 C   0  0  0  0  0  0  0  0  0  0  0  0
   -2.4245    3.9215   -5.1444 C   0  0  0  0  0  0  0  0  0  0  0  0
   -2.7635    2.7268   -4.5218 C   0  0  0  0  0  0  0  0  0  0  0  0
   -2.1953    2.4119   -3.2842 C   0  0  0  0  0  0  0  0  0  0  0  0
   -2.4967    1.2594   -2.6408 N   0  0  0  0  0  0  0  0  0  0  0  0
   -1.9616    0.9601   -1.4830 C   0  0  0  0  0  0  0  0  0  0  0  0
   -2.4062   -0.5653   -0.7214 S   0  0  0  0  0  0  0  0  0  0  0  0
   -3.5516   -1.2146   -1.9633 C   0  0  0  0  0  0  0  0  0  0  0  0
   -4.0750   -2.5540   -1.5125 C   0  0  0  0  0  0  0  0  0  0  0  0
   -3.7096   -3.0233   -0.4556 O   0  0  0  0  0  0  0  0  0  0  0  0
   -4.9492   -3.2302   -2.2838 N   0  0  0  0  0  0  0  0  0  0  0  0
   -5.3485   -4.5150   -1.9221 C   0  0  0  0  0  0  0  0  0  0  0  0
   -6.6431   -4.9438   -2.2016 C   0  0  0  0  0  0  0  0  0  0  0  0
   -7.0389   -6.2088   -1.8518 C   0  0  0  0  0  0  0  0  0  0  0  0
   -6.1419   -7.0665   -1.2027 C   0  0  0  0  0  0  0  0  0  0  0  0
   -4.8421   -6.6289   -0.9188 C   0  0  0  0  0  0  0  0  0  0  0  0
   -4.4535   -5.3640   -1.2770 C   0  0  0  0  0  0  0  0  0  0  0  0
   -6.5628   -8.4207   -0.8213 C   0  0  0  0  0  0  0  0  0  0  0  0
   -5.7843   -9.1621   -0.2596 O   0  0  0  0  0  0  0  0  0  0  0  0
   -7.9619   -8.8893   -1.1280 C   0  0  0  0  0  0  0  0  0  0  0  0
   -3.0217    4.2621   -6.4546 C   0  0  0  0  0  0  0  0  0  0  0  0
   -3.8052    3.4985   -6.9817 O   0  0  0  0  0  0  0  0  0  0  0  0
   -2.7089    1.2571    1.4973 O   0  0  0  0  0  0  0  0  0  0  0  0
    0.1808    2.0624    2.9994 H   0  0  0  0  0  0  0  0  0  0  0  0
   -1.4362    1.9479    3.7345 H   0  0  0  0  0  0  0  0  0  0  0  0
   -0.6706    0.4998    3.0380 H   0  0  0  0  0  0  0  0  0  0  0  0
   -0.4781    0.2852    0.5088 H   0  0  0  0  0  0  0  0  0  0  0  0
    0.4711    1.7895    0.5759 H   0  0  0  0  0  0  0  0  0  0  0  0
   -0.2649    5.1974   -2.8747 H   0  0  0  0  0  0  0  0  0  0  0  0
   -1.2669    5.7316   -5.0359 H   0  0  0  0  0  0  0  0  0  0  0  0
   -3.4605    2.0474   -4.9898 H   0  0  0  0  0  0  0  0  0  0  0  0
   -4.3842   -0.5221   -2.0871 H   0  0  0  0  0  0  0  0  0  0  0  0
   -3.0303   -1.3295   -2.9137 H   0  0  0  0  0  0  0  0  0  0  0  0
   -5.3003   -2.8224   -3.0909 H   0  0  0  0  0  0  0  0  0  0  0  0
   -7.3355   -4.2802   -2.6982 H   0  0  0  0  0  0  0  0  0  0  0  0
   -8.0422   -6.5421   -2.0727 H   0  0  0  0  0  0  0  0  0  0  0  0
   -4.1470   -7.2870   -0.4187 H   0  0  0  0  0  0  0  0  0  0  0  0
   -3.4513   -5.0258   -1.0588 H   0  0  0  0  0  0  0  0  0  0  0  0
   -8.1149   -8.8579   -2.1157 H   0  0  0  0  0  0  0  0  0  0  0  0
   -8.0885   -9.9121   -0.7730 H   0  0  0  0  0  0  0  0  0  0  0  0
   -8.6804   -8.2397   -0.6281 H   0  0  0  0  0  0  0  0  0  0  0  0
   -2.6757    0.2942    1.5806 H   0  0  0  0  0  0  0  0  0  0  0  0
   -2.6964    5.4191   -7.0625 O   0  0  0  0  0  1  0  0  0  0  0  0
  1  2  1  0  0  0  0
  1 33  1  0  0  0  0
  1 34  1  0  0  0  0
  1 35  1  0  0  0  0
  2  3  1  6  0  0  0
  2  4  1  0  0  0  0
  2 32  1  0  0  0  0
  4  5  1  0  0  0  0
  4 36  1  0  0  0  0
  4 37  1  0  0  0  0
  5 15  1  0  0  0  0
  5  6  1  0  0  0  0
  6  7  2  0  0  0  0
  6  8  1  0  0  0  0
  8 13  2  0  0  0  0
  8  9  1  0  0  0  0
  9 10  2  0  0  0  0
  9 38  1  0  0  0  0
 10 11  1  0  0  0  0
 10 39  1  0  0  0  0
 11 12  2  0  0  0  0
 11 30  1  0  0  0  0
 12 13  1  0  0  0  0
 12 40  1  0  0  0  0
 13 14  1  0  0  0  0
 14 15  2  0  0  0  0
 15 16  1  0  0  0  0
 16 17  1  0  0  0  0
 17 18  1  0  0  0  0
 17 41  1  0  0  0  0
 17 42  1  0  0  0  0
 18 19  2  0  0  0  0
 18 20  1  0  0  0  0
 20 21  1  0  0  0  0
 20 43  1  0  0  0  0
 21 26  2  0  0  0  0
 21 22  1  0  0  0  0
 22 23  2  0  0  0  0
 22 44  1  0  0  0  0
 23 24  1  0  0  0  0
 23 45  1  0  0  0  0
 24 25  2  0  0  0  0
 24 27  1  0  0  0  0
 25 26  1  0  0  0  0
 25 46  1  0  0  0  0
 26 47  1  0  0  0  0
 27 28  2  0  0  0  0
 27 29  1  0  0  0  0
 29 48  1  0  0  0  0
 29 49  1  0  0  0  0
 29 50  1  0  0  0  0
 30 31  2  0  0  0  0
 30 52  1  0  0  0  0
 32 51  1  0  0  0  0
M  END
$$$$
ZINC39698627
 OpenBabel01252620473D

 49 52  0  0  1  0  0  0  0  0999 V2000
   -0.0169    1.3939    0.0097 C   0  0  0  0  0  0  0  0  0  0  0  0
    1.1628    2.1063    0.0023 C   0  0  0  0  0  0  0  0  0  0  0  0
    2.3798    1.4299   -0.0082 C   0  0  0  0  0  0  0  0  0  0  0  0
    2.4029    0.0245   -0.0344 C   0  0  0  0  0  0  0  0  0  0  0  0
    1.2176   -0.6890   -0.0213 C   0  0  0  0  0  0  0  0  0  0  0  0
    0.0021   -0.0041    0.0020 C   0  0  0  0  0  0  0  0  0  0  0  0
   -1.2689   -0.7586    0.0192 C   0  0  0  0  0  0  0  0  0  0  0  0
   -2.3348   -0.1601    0.0400 O   0  0  0  0  0  0  0  0  0  0  0  0
   -1.2543   -1.9810    0.0125 O   0  0  0  0  0  1  0  0  0  0  0  0
    3.6381   -0.6136   -0.0873 N   0  0  0  0  0  0  0  0  0  0  0  0
    4.8012    0.0484    0.5144 C   0  0  1  0  0  0  0  0  0  0  0  0
    5.7138   -0.4219    0.1482 H   0  0  0  0  0  0  0  0  0  0  0  0
    4.8137    1.4688    0.1635 N   0  0  0  0  0  0  0  0  0  0  0  0
    3.6664    2.1551   -0.0078 C   0  0  0  0  0  0  0  0  0  0  0  0
    3.6904    3.3609   -0.1606 O   0  0  0  0  0  0  0  0  0  0  0  0
    6.0959    2.1571   -0.0047 C   0  0  0  0  0  0  0  0  0  0  0  0
    6.5443    2.0508   -1.4636 C   0  0  2  0  0  0  0  0  0  0  0  0
    6.5620    1.0047   -1.7696 H   0  0  0  0  0  0  0  0  0  0  0  0
    7.9502    2.6676   -1.6257 C   0  0  0  0  0  0  0  0  0  0  0  0
    7.8352    3.3954   -2.9928 C   0  0  0  0  0  0  0  0  0  0  0  0
    6.3554    3.8536   -2.9585 C   0  0  0  0  0  0  0  0  0  0  0  0
    5.6471    2.7874   -2.3027 O   0  0  0  0  0  0  0  0  0  0  0  0
    4.7212   -0.1198    2.3189 S   0  0  0  0  0  0  0  0  0  0  0  0
    3.1626    0.6930    2.7667 C   0  0  0  0  0  0  0  0  0  0  0  0
    2.9708    0.6235    4.2599 C   0  0  0  0  0  0  0  0  0  0  0  0
    3.8000    0.0816    4.9506 O   0  0  0  0  0  0  0  0  0  0  0  0
    1.7442    1.2303    4.8910 C   0  0  2  0  0  0  0  0  0  0  0  0
    0.8533    0.9495    4.3293 H   0  0  0  0  0  0  0  0  0  0  0  0
    1.8748    2.7364    4.9473 C   0  0  0  0  0  0  0  0  0  0  0  0
    1.8281    3.0597    6.2386 C   0  0  0  0  0  0  0  0  0  0  0  0
    1.6734    1.8452    7.0402 C   0  0  0  0  0  0  0  0  0  0  0  0
    1.6228    0.7943    6.2880 N   0  0  0  0  0  0  0  0  0  0  0  0
   -0.9609    1.9183    0.0260 H   0  0  0  0  0  0  0  0  0  0  0  0
    1.1434    3.1862    0.0042 H   0  0  0  0  0  0  0  0  0  0  0  0
    1.2330   -1.7689   -0.0294 H   0  0  0  0  0  0  0  0  0  0  0  0
    3.7287   -1.4801   -0.5139 H   0  0  0  0  0  0  0  0  0  0  0  0
    5.9827    3.2072    0.2650 H   0  0  0  0  0  0  0  0  0  0  0  0
    6.8437    1.6951    0.6398 H   0  0  0  0  0  0  0  0  0  0  0  0
    8.1572    3.3772   -0.8247 H   0  0  0  0  0  0  0  0  0  0  0  0
    8.7131    1.8899   -1.6633 H   0  0  0  0  0  0  0  0  0  0  0  0
    8.5100    4.2501   -3.0409 H   0  0  0  0  0  0  0  0  0  0  0  0
    8.0147    2.7086   -3.8199 H   0  0  0  0  0  0  0  0  0  0  0  0
    6.2589    4.7786   -2.3901 H   0  0  0  0  0  0  0  0  0  0  0  0
    5.9781    3.9903   -3.9719 H   0  0  0  0  0  0  0  0  0  0  0  0
    3.1935    1.7362    2.4525 H   0  0  0  0  0  0  0  0  0  0  0  0
    2.3339    0.1883    2.2701 H   0  0  0  0  0  0  0  0  0  0  0  0
    1.9836    3.4115    4.1113 H   0  0  0  0  0  0  0  0  0  0  0  0
    1.8939    4.0630    6.6330 H   0  0  0  0  0  0  0  0  0  0  0  0
    1.6092    1.8284    8.1182 H   0  0  0  0  0  0  0  0  0  0  0  0
  1  6  2  0  0  0  0
  1  2  1  0  0  0  0
  1 33  1  0  0  0  0
  2  3  2  0  0  0  0
  2 34  1  0  0  0  0
  3 14  1  0  0  0  0
  3  4  1  0  0  0  0
  4  5  2  0  0  0  0
  4 10  1  0  0  0  0
  5  6  1  0  0  0  0
  5 35  1  0  0  0  0
  6  7  1  0  0  0  0
  7  8  2  0  0  0  0
  7  9  1  0  0  0  0
 10 11  1  0  0  0  0
 10 36  1  0  0  0  0
 11 12  1  6  0  0  0
 11 13  1  0  0  0  0
 11 23  1  0  0  0  0
 13 14  1  0  0  0  0
 13 16  1  0  0  0  0
 14 15  2  0  0  0  0
 16 17  1  0  0  0  0
 16 37  1  0  0  0  0
 16 38  1  0  0  0  0
 17 18  1  6  0  0  0
 17 22  1  0  0  0  0
 17 19  1  0  0  0  0
 19 20  1  0  0  0  0
 19 39  1  0  0  0  0
 19 40  1  0  0  0  0
 20 21  1  0  0  0  0
 20 41  1  0  0  0  0
 20 42  1  0  0  0  0
 21 22  1  0  0  0  0
 21 43  1  0  0  0  0
 21 44  1  0  0  0  0
 23 24  1  0  0  0  0
 24 25  1  0  0  0  0
 24 45  1  0  0  0  0
 24 46  1  0  0  0  0
 25 26  2  0  0  0  0
 25 27  1  0  0  0  0
 27 28  1  6  0  0  0
 27 32  1  0  0  0  0
 27 29  1  0  0  0  0
 29 30  2  0  0  0  0
 29 47  1  0  0  0  0
 30 31  1  0  0  0  0
 30 48  1  0  0  0  0
 31 32  2  0  0  0  0
 31 49  1  0  0  0  0
M  END
$$$$
ZINC39595675
 OpenBabel01252620473D

 56 57  0  0  0  0  0  0  0  0999 V2000
   -0.0187    1.5258    0.0104 C   0  0  0  0  0  0  0  0  0  0  0  0
    0.0021   -0.0041    0.0020 C   0  0  0  0  0  0  0  0  0  0  0  0
    0.7182   -0.4975   -1.2568 C   0  0  0  0  0  0  0  0  0  0  0  0
    0.7381   -1.9623   -1.2648 N   0  0  0  0  0  0  0  0  0  0  0  0
    1.3211   -2.6228   -2.2848 C   0  0  0  0  0  0  0  0  0  0  0  0
    1.8303   -2.0031   -3.1980 O   0  0  0  0  0  0  0  0  0  0  0  0
    1.3394   -3.9704   -2.2922 N   0  0  0  0  0  0  0  0  0  0  0  0
    1.9224   -4.6308   -3.3122 C   0  0  0  0  0  0  0  0  0  0  0  0
    2.4304   -4.0127   -4.2231 O   0  0  0  0  0  0  0  0  0  0  0  0
    1.9428   -6.1377   -3.3205 C   0  0  0  0  0  0  0  0  0  0  0  0
    2.6117   -6.5985   -4.4962 O   0  0  0  0  0  0  0  0  0  0  0  0
    2.7166   -7.9324   -4.6573 C   0  0  0  0  0  0  0  0  0  0  0  0
    2.2528   -8.6836   -3.8223 O   0  0  0  0  0  0  0  0  0  0  0  0
    3.3934   -8.4797   -5.8455 C   0  0  0  0  0  0  0  0  0  0  0  0
    3.9336   -7.6196   -6.8061 C   0  0  0  0  0  0  0  0  0  0  0  0
    4.5651   -8.1379   -7.9148 C   0  0  0  0  0  0  0  0  0  0  0  0
    4.6689   -9.5098   -8.0848 C   0  0  0  0  0  0  0  0  0  0  0  0
    4.1412  -10.3721   -7.1462 C   0  0  0  0  0  0  0  0  0  0  0  0
    3.5053   -9.8687   -6.0179 C   0  0  0  0  0  0  0  0  0  0  0  0
    2.9784  -10.7344   -5.0690 N   0  0  0  0  0  2  0  0  0  0  0  0
    3.1129  -12.3718   -5.2768 S   0  0  0  0  0  0  0  0  0  0  0  0
    2.3288  -12.7025   -6.4148 O   0  0  0  0  0  0  0  0  0  0  0  0
    4.4974  -12.6799   -5.1900 O   0  0  0  0  0  0  0  0  0  0  0  0
    2.3387  -13.1380   -3.8918 C   0  0  0  0  0  0  0  0  0  0  0  0
    3.0773  -13.4221   -2.7580 C   0  0  0  0  0  0  0  0  0  0  0  0
    2.4728  -14.0232   -1.6710 C   0  0  0  0  0  0  0  0  0  0  0  0
    1.1233  -14.3414   -1.7175 C   0  0  0  0  0  0  0  0  0  0  0  0
    0.3842  -14.0549   -2.8561 C   0  0  0  0  0  0  0  0  0  0  0  0
    0.9923  -13.4490   -3.9385 C   0  0  0  0  0  0  0  0  0  0  0  0
    0.5264  -14.9331   -0.6496 O   0  0  0  0  0  0  0  0  0  0  0  0
   -0.8660  -15.2323   -0.7680 C   0  0  0  0  0  0  0  0  0  0  0  0
   -1.3579  -15.8901    0.5228 C   0  0  0  0  0  0  0  0  0  0  0  0
    1.0039    1.9031    0.0027 H   0  0  0  0  0  0  0  0  0  0  0  0
   -0.5459    1.8868   -0.8726 H   0  0  0  0  0  0  0  0  0  0  0  0
   -0.5289    1.8773    0.9072 H   0  0  0  0  0  0  0  0  0  0  0  0
    0.5293   -0.3651    0.8851 H   0  0  0  0  0  0  0  0  0  0  0  0
   -1.0205   -0.3814    0.0098 H   0  0  0  0  0  0  0  0  0  0  0  0
    0.1910   -0.1364   -2.1398 H   0  0  0  0  0  0  0  0  0  0  0  0
    1.7408   -0.1202   -1.2645 H   0  0  0  0  0  0  0  0  0  0  0  0
    0.3316   -2.4569   -0.5361 H   0  0  0  0  0  0  0  0  0  0  0  0
    0.9329   -4.4650   -1.5635 H   0  0  0  0  0  0  0  0  0  0  0  0
    2.4700   -6.4987   -2.4375 H   0  0  0  0  0  0  0  0  0  0  0  0
    0.9202   -6.5149   -3.3128 H   0  0  0  0  0  0  0  0  0  0  0  0
    3.8555   -6.5499   -6.6791 H   0  0  0  0  0  0  0  0  0  0  0  0
    4.9816   -7.4719   -8.6561 H   0  0  0  0  0  0  0  0  0  0  0  0
    5.1658   -9.9061   -8.9580 H   0  0  0  0  0  0  0  0  0  0  0  0
    4.2263  -11.4396   -7.2863 H   0  0  0  0  0  0  0  0  0  0  0  0
    4.1279  -13.1741   -2.7223 H   0  0  0  0  0  0  0  0  0  0  0  0
    3.0504  -14.2455   -0.7859 H   0  0  0  0  0  0  0  0  0  0  0  0
   -0.6665  -14.3017   -2.8947 H   0  0  0  0  0  0  0  0  0  0  0  0
    0.4164  -13.2218   -4.8234 H   0  0  0  0  0  0  0  0  0  0  0  0
   -1.4221  -14.3109   -0.9410 H   0  0  0  0  0  0  0  0  0  0  0  0
   -1.0214  -15.9131   -1.6049 H   0  0  0  0  0  0  0  0  0  0  0  0
   -1.2024  -15.2093    1.3597 H   0  0  0  0  0  0  0  0  0  0  0  0
   -2.4199  -16.1183    0.4325 H   0  0  0  0  0  0  0  0  0  0  0  0
   -0.8017  -16.8115    0.6958 H   0  0  0  0  0  0  0  0  0  0  0  0
  1  2  1  0  0  0  0
  1 33  1  0  0  0  0
  1 34  1  0  0  0  0
  1 35  1  0  0  0  0
  2  3  1  0  0  0  0
  2 36  1  0  0  0  0
  2 37  1  0  0  0  0
  3  4  1  0  0  0  0
  3 38  1  0  0  0  0
  3 39  1  0  0  0  0
  4  5  1  0  0  0  0
  4 40  1  0  0  0  0
  5  6  2  0  0  0  0
  5  7  1  0  0  0  0
  7  8  1  0  0  0  0
  7 41  1  0  0  0  0
  8  9  2  0  0  0  0
  8 10  1  0  0  0  0
 10 11  1  0  0  0  0
 10 42  1  0  0  0  0
 10 43  1  0  0  0  0
 11 12  1  0  0  0  0
 12 13  2  0  0  0  0
 12 14  1  0  0  0  0
 14 19  2  0  0  0  0
 14 15  1  0  0  0  0
 15 16  2  0  0  0  0
 15 44  1  0  0  0  0
 16 17  1  0  0  0  0
 16 45  1  0  0  0  0
 17 18  2  0  0  0  0
 17 46  1  0  0  0  0
 18 19  1  0  0  0  0
 18 47  1  0  0  0  0
 19 20  1  0  0  0  0
 20 21  1  0  0  0  0
 21 22  2  0  0  0  0
 21 23  2  0  0  0  0
 21 24  1  0  0  0  0
 24 29  2  0  0  0  0
 24 25  1  0  0  0  0
 25 26  2  0  0  0  0
 25 48  1  0  0  0  0
 26 27  1  0  0  0  0
 26 49  1  0  0  0  0
 27 28  2  0  0  0  0
 27 30  1  0  0  0  0
 28 29  1  0  0  0  0
 28 50  1  0  0  0  0
 29 51  1  0  0  0  0
 30 31  1  0  0  0  0
 31 32  1  0  0  0  0
 31 52  1  0  0  0  0
 31 53  1  0  0  0  0
 32 54  1  0  0  0  0
 32 55  1  0  0  0  0
 32 56  1  0  0  0  0
M  END
$$$$
ZINC64665678
 OpenBabel01252620473D

 33 34  0  0  0  0  0  0  0  0999 V2000
   -0.0163    1.3513    0.0095 C   0  0  0  0  0  0  0  0  0  0  0  0
    1.1833    2.0380    0.0017 C   0  0  0  0  0  0  0  0  0  0  0  0
    2.3426    1.3358   -0.0131 C   0  0  0  0  0  0  0  0  0  0  0  0
    1.7535   -0.3495   -0.0166 S   0  0  0  0  0  0  0  0  0  0  0  0
    0.0021   -0.0041    0.0020 C   0  0  0  0  0  0  0  0  0  0  0  0
    4.0007    1.9316   -0.0263 S   0  0  0  0  0  0  0  0  0  0  0  0
    4.7986    0.8998   -0.5901 O   0  0  0  0  0  0  0  0  0  0  0  0
    3.9565    3.2437   -0.5701 O   0  0  0  0  0  0  0  0  0  0  0  0
    4.4769    2.0892    1.5520 N   0  0  0  0  0  0  0  0  0  0  0  0
    5.6638    2.5133    1.8285 C   0  0  0  0  0  0  0  0  0  0  0  0
    6.5169    2.8284    0.8318 O   0  5  0  0  0  0  0  0  0  0  0  0
    6.0971    2.6567    3.2647 C   0  0  0  0  0  0  0  0  0  0  0  0
    5.0268    2.2648    4.1266 O   0  0  0  0  0  0  0  0  0  0  0  0
    5.2543    2.3351    5.4626 C   0  0  0  0  0  0  0  0  0  0  0  0
    6.4843    2.7791    5.9339 C   0  0  0  0  0  0  0  0  0  0  0  0
    6.7191    2.8519    7.2888 C   0  0  0  0  0  0  0  0  0  0  0  0
    5.7187    2.4791    8.1903 C   0  0  0  0  0  0  0  0  0  0  0  0
    4.4834    2.0336    7.7126 C   0  0  0  0  0  0  0  0  0  0  0  0
    4.2548    1.9683    6.3562 C   0  0  0  0  0  0  0  0  0  0  0  0
    5.9663    2.5551    9.6434 C   0  0  0  0  0  0  0  0  0  0  0  0
    7.0418    2.9425   10.0574 O   0  0  0  0  0  0  0  0  0  0  0  0
    5.0002    2.1950   10.5114 N   0  0  0  0  0  0  0  0  0  0  0  0
   -0.9542    1.8866    0.0258 H   0  0  0  0  0  0  0  0  0  0  0  0
    1.1967    3.1179    0.0070 H   0  0  0  0  0  0  0  0  0  0  0  0
   -0.8275   -0.6955    0.0065 H   0  0  0  0  0  0  0  0  0  0  0  0
    6.9630    2.0205    3.4483 H   0  0  0  0  0  0  0  0  0  0  0  0
    6.3611    3.6956    3.4626 H   0  0  0  0  0  0  0  0  0  0  0  0
    7.2570    3.0671    5.2364 H   0  0  0  0  0  0  0  0  0  0  0  0
    7.6752    3.1964    7.6541 H   0  0  0  0  0  0  0  0  0  0  0  0
    3.7077    1.7446    8.4062 H   0  0  0  0  0  0  0  0  0  0  0  0
    3.2989    1.6280    5.9862 H   0  0  0  0  0  0  0  0  0  0  0  0
    4.1421    1.8859   10.1811 H   0  0  0  0  0  0  0  0  0  0  0  0
    5.1629    2.2450   11.4663 H   0  0  0  0  0  0  0  0  0  0  0  0
  1  5  2  0  0  0  0
  1  2  1  0  0  0  0
  1 23  1  0  0  0  0
  2  3  2  0  0  0  0
  2 24  1  0  0  0  0
  3  4  1  0  0  0  0
  3  6  1  0  0  0  0
  4  5  1  0  0  0  0
  5 25  1  0  0  0  0
  6  7  2  0  0  0  0
  6  8  2  0  0  0  0
  6  9  1  0  0  0  0
  9 10  2  0  0  0  0
 10 11  1  0  0  0  0
 10 12  1  0  0  0  0
 12 13  1  0  0  0  0
 12 26  1  0  0  0  0
 12 27  1  0  0  0  0
 13 14  1  0  0  0  0
 14 19  2  0  0  0  0
 14 15  1  0  0  0  0
 15 16  2  0  0  0  0
 15 28  1  0  0  0  0
 16 17  1  0  0  0  0
 16 29  1  0  0  0  0
 17 18  2  0  0  0  0
 17 20  1  0  0  0  0
 18 19  1  0  0  0  0
 18 30  1  0  0  0  0
 19 31  1  0  0  0  0
 20 21  2  0  0  0  0
 20 22  1  0  0  0  0
 22 32  1  0  0  0  0
 22 33  1  0  0  0  0
M  CHG  1  11  -1
M  END
$$$$
ZINC64358408
 OpenBabel01252620473D

 35 37  0  0  1  0  0  0  0  0999 V2000
   -0.0168    1.3887    0.0097 C   0  0  0  0  0  0  0  0  0  0  0  0
    1.1576    2.0864    0.0022 C   0  0  0  0  0  0  0  0  0  0  0  0
    2.3621    1.3587   -0.0132 C   0  0  0  0  0  0  0  0  0  0  0  0
    3.6081    2.0068   -0.0210 C   0  0  0  0  0  0  0  0  0  0  0  0
    4.7517    1.2683   -0.0355 C   0  0  0  0  0  0  0  0  0  0  0  0
    4.7043   -0.1241   -0.0427 C   0  0  0  0  0  0  0  0  0  0  0  0
    3.5135   -0.7868   -0.0359 C   0  0  0  0  0  0  0  0  0  0  0  0
    2.3091   -0.0571   -0.0203 C   0  0  0  0  0  0  0  0  0  0  0  0
    1.1262   -0.6786   -0.0123 N   0  0  0  0  0  0  0  0  0  0  0  0
    0.0021   -0.0041    0.0020 C   0  0  0  0  0  0  0  0  0  0  0  0
    3.4885   -2.1375   -0.0430 F   0  0  0  0  0  0  0  0  0  0  0  0
    3.6908    3.7669   -0.0127 S   0  0  0  0  0  0  0  0  0  0  0  0
    2.8242    4.2093    1.0229 O   0  0  0  0  0  0  0  0  0  0  0  0
    5.0695    4.1089   -0.0504 O   0  0  0  0  0  0  0  0  0  0  0  0
    3.0331    4.2946   -1.4379 N   0  0  0  0  0  0  0  0  0  0  0  0
    2.9691    5.5585   -1.6901 C   0  0  0  0  0  0  0  0  0  0  0  0
    3.4380    6.4501   -0.7925 O   0  5  0  0  0  0  0  0  0  0  0  0
    2.3706    6.0388   -2.9870 C   0  0  1  0  0  0  0  0  0  0  0  0
    1.3360    7.1309   -2.6999 C   0  0  0  0  0  0  0  0  0  0  0  0
    0.8546    7.6589   -3.9395 O   0  0  0  0  0  0  0  0  0  0  0  0
    1.8863    8.1970   -4.7719 C   0  0  0  0  0  0  0  0  0  0  0  0
    2.9209    7.1049   -5.0590 C   0  0  0  0  0  0  0  0  0  0  0  0
    3.4023    6.5769   -3.8195 O   0  0  0  0  0  0  0  0  0  0  0  0
   -0.9590    1.9164    0.0260 H   0  0  0  0  0  0  0  0  0  0  0  0
    1.1617    3.1664    0.0076 H   0  0  0  0  0  0  0  0  0  0  0  0
    5.7088    1.7686   -0.0419 H   0  0  0  0  0  0  0  0  0  0  0  0
    5.6258   -0.6872   -0.0543 H   0  0  0  0  0  0  0  0  0  0  0  0
   -0.9341   -0.5426    0.0084 H   0  0  0  0  0  0  0  0  0  0  0  0
    1.8890    5.2045   -3.4970 H   0  0  0  0  0  0  0  0  0  0  0  0
    0.5045    6.7061   -2.1374 H   0  0  0  0  0  0  0  0  0  0  0  0
    1.7998    7.9286   -2.1198 H   0  0  0  0  0  0  0  0  0  0  0  0
    1.4534    8.5444   -5.7100 H   0  0  0  0  0  0  0  0  0  0  0  0
    2.3687    9.0306   -4.2614 H   0  0  0  0  0  0  0  0  0  0  0  0
    2.4571    6.3072   -5.6392 H   0  0  0  0  0  0  0  0  0  0  0  0
    3.7523    7.5297   -5.6215 H   0  0  0  0  0  0  0  0  0  0  0  0
  1 10  2  0  0  0  0
  1  2  1  0  0  0  0
  1 24  1  0  0  0  0
  2  3  2  0  0  0  0
  2 25  1  0  0  0  0
  3  8  1  0  0  0  0
  3  4  1  0  0  0  0
  4  5  2  0  0  0  0
  4 12  1  0  0  0  0
  5  6  1  0  0  0  0
  5 26  1  0  0  0  0
  6  7  2  0  0  0  0
  6 27  1  0  0  0  0
  7  8  1  0  0  0  0
  7 11  1  0  0  0  0
  8  9  2  0  0  0  0
  9 10  1  0  0  0  0
 10 28  1  0  0  0  0
 12 13  2  0  0  0  0
 12 14  2  0  0  0  0
 12 15  1  0  0  0  0
 15 16  2  0  0  0  0
 16 17  1  0  0  0  0
 16 18  1  0  0  0  0
 18 23  1  0  0  0  0
 18 19  1  0  0  0  0
 18 29  1  6  0  0  0
 19 20  1  0  0  0  0
 19 30  1  0  0  0  0
 19 31  1  0  0  0  0
 20 21  1  0  0  0  0
 21 22  1  0  0  0  0
 21 32  1  0  0  0  0
 21 33  1  0  0  0  0
 22 23  1  0  0  0  0
 22 34  1  0  0  0  0
 22 35  1  0  0  0  0
M  CHG  1  17  -1
M  END
$$$$
ZINC39022314
 OpenBabel01252620473D

 34 36  0  0  1  0  0  0  0  0999 V2000
   -0.7222    1.2632    0.5758 C   0  0  0  0  0  0  0  0  0  0  0  0
    0.3294    2.1235    0.8281 C   0  0  0  0  0  0  0  0  0  0  0  0
    1.6230    1.6342    0.8941 C   0  0  0  0  0  0  0  0  0  0  0  0
    1.8613    0.2831    0.7070 C   0  0  0  0  0  0  0  0  0  0  0  0
    0.8081   -0.5753    0.4548 C   0  0  0  0  0  0  0  0  0  0  0  0
   -0.4831   -0.0856    0.3893 C   0  0  0  0  0  0  0  0  0  0  0  0
   -1.6307   -1.0228    0.1142 C   0  0  0  0  0  0  0  0  0  0  0  0
   -1.8525   -1.1122   -1.3312 N   0  0  0  0  0  0  0  0  0  0  0  0
   -2.7004   -0.2459   -1.9260 C   0  0  0  0  0  0  0  0  0  0  0  0
   -3.2821    0.6066   -1.2832 O   0  0  0  0  0  0  0  0  0  0  0  0
   -2.8970   -0.3700   -3.3903 C   0  0  0  0  0  0  0  0  0  0  0  0
   -3.7253    0.4540   -4.0652 C   0  0  0  0  0  0  0  0  0  0  0  0
   -4.3001    1.6687   -3.3832 C   0  0  1  0  0  0  0  0  0  0  0  0
   -3.8167    1.8233   -2.4186 H   0  0  0  0  0  0  0  0  0  0  0  0
   -4.1272    2.8911   -4.2575 C   0  0  0  0  0  0  0  0  0  0  0  0
   -5.3569    3.3335   -4.5152 C   0  0  0  0  0  0  0  0  0  0  0  0
   -6.3350    2.4669   -3.8565 C   0  0  0  0  0  0  0  0  0  0  0  0
   -5.7497    1.5142   -3.2065 N   0  0  0  0  0  0  0  0  0  0  0  0
   -2.1373   -1.4454   -4.0783 C   0  0  0  0  0  0  0  0  0  0  0  0
   -1.3324   -2.2255   -3.3409 N   0  0  0  0  0  0  0  0  0  0  0  0
   -1.1970   -2.0616   -2.0483 C   0  0  0  0  0  0  0  0  0  0  0  0
   -0.3623   -2.8881   -1.3898 O   0  5  0  0  0  0  0  0  0  0  0  0
   -2.2427   -1.6147   -5.2802 O   0  0  0  0  0  0  0  0  0  0  0  0
    2.6519    2.4744    1.1402 F   0  0  0  0  0  0  0  0  0  0  0  0
   -1.7318    1.6439    0.5288 H   0  0  0  0  0  0  0  0  0  0  0  0
    0.1424    3.1772    0.9735 H   0  0  0  0  0  0  0  0  0  0  0  0
    2.8699   -0.0996    0.7579 H   0  0  0  0  0  0  0  0  0  0  0  0
    0.9937   -1.6292    0.3085 H   0  0  0  0  0  0  0  0  0  0  0  0
   -1.3947   -2.0116    0.5074 H   0  0  0  0  0  0  0  0  0  0  0  0
   -2.5319   -0.6452    0.5973 H   0  0  0  0  0  0  0  0  0  0  0  0
   -3.9763    0.2430   -5.0942 H   0  0  0  0  0  0  0  0  0  0  0  0
   -3.1969    3.3179   -4.6023 H   0  0  0  0  0  0  0  0  0  0  0  0
   -5.5952    4.1982   -5.1168 H   0  0  0  0  0  0  0  0  0  0  0  0
   -7.4050    2.6052   -3.9056 H   0  0  0  0  0  0  0  0  0  0  0  0
  1  6  2  0  0  0  0
  1  2  1  0  0  0  0
  1 25  1  0  0  0  0
  2  3  2  0  0  0  0
  2 26  1  0  0  0  0
  3  4  1  0  0  0  0
  3 24  1  0  0  0  0
  4  5  2  0  0  0  0
  4 27  1  0  0  0  0
  5  6  1  0  0  0  0
  5 28  1  0  0  0  0
  6  7  1  0  0  0  0
  7  8  1  0  0  0  0
  7 29  1  0  0  0  0
  7 30  1  0  0  0  0
  8 21  1  0  0  0  0
  8  9  1  0  0  0  0
  9 10  2  0  0  0  0
  9 11  1  0  0  0  0
 11 12  2  0  0  0  0
 11 19  1  0  0  0  0
 12 13  1  0  0  0  0
 12 31  1  0  0  0  0
 13 14  1  1  0  0  0
 13 18  1  0  0  0  0
 13 15  1  0  0  0  0
 15 16  2  0  0  0  0
 15 32  1  0  0  0  0
 16 17  1  0  0  0  0
 16 33  1  0  0  0  0
 17 18  2  0  0  0  0
 17 34  1  0  0  0  0
 19 20  1  0  0  0  0
 19 23  2  0  0  0  0
 20 21  2  0  0  0  0
 21 22  1  0  0  0  0
M  CHG  1  22  -1
M  END
$$$$
ZINC40096988
 OpenBabel01252620473D

 62 65  0  0  1  0  0  0  0  0999 V2000
    0.1385    1.5324    0.1013 C   0  0  0  0  0  0  0  0  0  0  0  0
    0.0481    0.0067    0.0313 C   0  0  0  0  0  0  0  0  0  0  0  0
    0.7229   -0.6012    1.2626 C   0  0  0  0  0  0  0  0  0  0  0  0
   -1.4218   -0.4160   -0.0055 C   0  0  0  0  0  0  0  0  0  0  0  0
    0.7424   -0.4810   -1.2142 C   0  0  0  0  0  0  0  0  0  0  0  0
    0.0346   -1.1876   -2.1684 C   0  0  0  0  0  0  0  0  0  0  0  0
    0.6714   -1.6349   -3.3108 C   0  0  0  0  0  0  0  0  0  0  0  0
    2.0160   -1.3753   -3.4993 C   0  0  0  0  0  0  0  0  0  0  0  0
    2.7237   -0.6679   -2.5455 C   0  0  0  0  0  0  0  0  0  0  0  0
    2.0858   -0.2168   -1.4050 C   0  0  0  0  0  0  0  0  0  0  0  0
    2.7106   -1.8638   -4.7443 C   0  0  2  0  0  0  0  0  0  0  0  0
    1.9789   -2.2482   -5.4549 H   0  0  0  0  0  0  0  0  0  0  0  0
    3.7096   -2.9415   -4.3930 C   0  0  0  0  0  0  0  0  0  0  0  0
    4.9255   -2.4858   -4.7740 C   0  0  0  0  0  0  0  0  0  0  0  0
    4.7763   -1.1417   -5.3677 C   0  0  0  0  0  0  0  0  0  0  0  0
    5.6877   -0.4679   -5.8056 O   0  0  0  0  0  0  0  0  0  0  0  0
    3.4811   -0.7732   -5.3533 N   0  0  0  0  0  0  0  0  0  0  0  0
    2.9370    0.4906   -5.8563 C   0  0  0  0  0  0  0  0  0  0  0  0
    2.9312    1.5272   -4.7309 C   0  0  0  0  0  0  0  0  0  0  0  0
    4.2759    1.8207   -4.3468 O   0  0  0  0  0  0  0  0  0  0  0  0
    4.3832    2.7834   -3.2961 C   0  0  0  0  0  0  0  0  0  0  0  0
    5.8592    3.0187   -2.9689 C   0  0  0  0  0  0  0  0  0  0  0  0
    6.5077    3.6138   -4.0946 O   0  0  0  0  0  0  0  0  0  0  0  0
    6.0932   -3.1556   -4.6332 O   0  5  0  0  0  0  0  0  0  0  0  0
    3.4177   -4.2329   -3.7613 C   0  0  0  0  0  0  0  0  0  0  0  0
    3.8441   -4.4758   -2.6465 O   0  0  0  0  0  0  0  0  0  0  0  0
    2.6111   -5.2331   -4.4732 C   0  0  0  0  0  0  0  0  0  0  0  0
    2.1935   -6.4187   -3.9512 C   0  0  0  0  0  0  0  0  0  0  0  0
    1.4297   -7.0791   -5.0078 C   0  0  0  0  0  0  0  0  0  0  0  0
    0.7515   -8.2975   -5.1032 C   0  0  0  0  0  0  0  0  0  0  0  0
    0.1178   -8.6301   -6.2669 C   0  0  0  0  0  0  0  0  0  0  0  0
    0.1435   -7.7663   -7.3537 C   0  0  0  0  0  0  0  0  0  0  0  0
    0.8070   -6.5605   -7.2802 C   0  0  0  0  0  0  0  0  0  0  0  0
    1.4588   -6.1996   -6.1069 C   0  0  0  0  0  0  0  0  0  0  0  0
    2.1671   -5.1131   -5.7415 O   0  0  0  0  0  0  0  0  0  0  0  0
    1.1857    1.8336    0.1275 H   0  0  0  0  0  0  0  0  0  0  0  0
   -0.3423    1.9655   -0.7759 H   0  0  0  0  0  0  0  0  0  0  0  0
   -0.3637    1.8852    1.0021 H   0  0  0  0  0  0  0  0  0  0  0  0
    0.2208   -0.2484    2.1634 H   0  0  0  0  0  0  0  0  0  0  0  0
    0.6586   -1.6881    1.2127 H   0  0  0  0  0  0  0  0  0  0  0  0
    1.7702   -0.3000    1.2888 H   0  0  0  0  0  0  0  0  0  0  0  0
   -1.9026    0.0170   -0.8827 H   0  0  0  0  0  0  0  0  0  0  0  0
   -1.4862   -1.5030   -0.0554 H   0  0  0  0  0  0  0  0  0  0  0  0
   -1.9240   -0.0633    0.8953 H   0  0  0  0  0  0  0  0  0  0  0  0
   -1.0159   -1.3904   -2.0212 H   0  0  0  0  0  0  0  0  0  0  0  0
    0.1186   -2.1876   -4.0560 H   0  0  0  0  0  0  0  0  0  0  0  0
    3.7743   -0.4653   -2.6925 H   0  0  0  0  0  0  0  0  0  0  0  0
    2.6378    0.3390   -0.6616 H   0  0  0  0  0  0  0  0  0  0  0  0
    3.5552    0.8507   -6.6787 H   0  0  0  0  0  0  0  0  0  0  0  0
    1.9181    0.3325   -6.2099 H   0  0  0  0  0  0  0  0  0  0  0  0
    2.4455    2.4388   -5.0791 H   0  0  0  0  0  0  0  0  0  0  0  0
    2.3869    1.1301   -3.8740 H   0  0  0  0  0  0  0  0  0  0  0  0
    3.9277    3.7210   -3.6146 H   0  0  0  0  0  0  0  0  0  0  0  0
    3.8692    2.4124   -2.4095 H   0  0  0  0  0  0  0  0  0  0  0  0
    5.9392    3.6845   -2.1096 H   0  0  0  0  0  0  0  0  0  0  0  0
    6.3361    2.0665   -2.7363 H   0  0  0  0  0  0  0  0  0  0  0  0
    7.4484    3.7916   -3.9580 H   0  0  0  0  0  0  0  0  0  0  0  0
    2.3873   -6.7952   -2.9577 H   0  0  0  0  0  0  0  0  0  0  0  0
    0.7287   -8.9731   -4.2610 H   0  0  0  0  0  0  0  0  0  0  0  0
   -0.4063   -9.5714   -6.3421 H   0  0  0  0  0  0  0  0  0  0  0  0
   -0.3620   -8.0427   -8.2673 H   0  0  0  0  0  0  0  0  0  0  0  0
    0.8205   -5.8974   -8.1326 H   0  0  0  0  0  0  0  0  0  0  0  0
  1  2  1  0  0  0  0
  1 36  1  0  0  0  0
  1 37  1  0  0  0  0
  1 38  1  0  0  0  0
  2  3  1  0  0  0  0
  2  4  1  0  0  0  0
  2  5  1  0  0  0  0
  3 39  1  0  0  0  0
  3 40  1  0  0  0  0
  3 41  1  0  0  0  0
  4 42  1  0  0  0  0
  4 43  1  0  0  0  0
  4 44  1  0  0  0  0
  5 10  2  0  0  0  0
  5  6  1  0  0  0  0
  6  7  2  0  0  0  0
  6 45  1  0  0  0  0
  7  8  1  0  0  0  0
  7 46  1  0  0  0  0
  8  9  2  0  0  0  0
  8 11  1  0  0  0  0
  9 10  1  0  0  0  0
  9 47  1  0  0  0  0
 10 48  1  0  0  0  0
 11 12  1  6  0  0  0
 11 17  1  0  0  0  0
 11 13  1  0  0  0  0
 13 14  2  0  0  0  0
 13 25  1  0  0  0  0
 14 15  1  0  0  0  0
 14 24  1  0  0  0  0
 15 16  2  0  0  0  0
 15 17  1  0  0  0  0
 17 18  1  0  0  0  0
 18 19  1  0  0  0  0
 18 49  1  0  0  0  0
 18 50  1  0  0  0  0
 19 20  1  0  0  0  0
 19 51  1  0  0  0  0
 19 52  1  0  0  0  0
 20 21  1  0  0  0  0
 21 22  1  0  0  0  0
 21 53  1  0  0  0  0
 21 54  1  0  0  0  0
 22 23  1  0  0  0  0
 22 55  1  0  0  0  0
 22 56  1  0  0  0  0
 23 57  1  0  0  0  0
 25 26  2  0  0  0  0
 25 27  1  0  0  0  0
 27 35  1  0  0  0  0
 27 28  2  0  0  0  0
 28 29  1  0  0  0  0
 28 58  1  0  0  0  0
 29 34  2  0  0  0  0
 29 30  1  0  0  0  0
 30 31  2  0  0  0  0
 30 59  1  0  0  0  0
 31 32  1  0  0  0  0
 31 60  1  0  0  0  0
 32 33  2  0  0  0  0
 32 61  1  0  0  0  0
 33 34  1  0  0  0  0
 33 62  1  0  0  0  0
 34 35  1  0  0  0  0
M  CHG  1  24  -1
M  END
$$$$
ZINC00108478
 OpenBabel01252620473D

 29 31  0  0  0  0  0  0  0  0999 V2000
   -2.3099   -2.9962    0.0080 C   0  0  0  0  0  0  0  0  0  0  0  0
   -1.1100   -2.3190    0.0002 C   0  0  0  0  0  0  0  0  0  0  0  0
   -1.1286   -0.9476    0.0077 C   0  0  0  0  0  0  0  0  0  0  0  0
   -2.8804   -0.6041    0.0342 S   0  0  0  0  0  0  0  0  0  0  0  0
   -3.4688   -2.2895    0.0229 C   0  0  0  0  0  0  0  0  0  0  0  0
    0.0021   -0.0041    0.0020 C   0  0  0  0  0  0  0  0  0  0  0  0
   -0.0165    1.3673    0.0096 C   0  0  0  0  0  0  0  0  0  0  0  0
    1.1834    2.0446    0.0017 C   0  0  0  0  0  0  0  0  0  0  0  0
    2.3422    1.3379   -0.0131 C   0  0  0  0  0  0  0  0  0  0  0  0
    1.7540   -0.3476   -0.0166 S   0  0  0  0  0  0  0  0  0  0  0  0
    3.7610    1.8457   -0.0239 C   0  0  0  0  0  0  0  0  0  0  0  0
    4.2338    2.0034    1.3537 N   0  0  0  0  0  0  0  0  0  0  0  0
    5.5280    2.4646    1.5989 C   0  0  0  0  0  0  0  0  0  0  0  0
    6.0716    2.6490    2.8070 N   0  0  0  0  0  0  0  0  0  0  0  0
    7.3043    3.0908    2.6749 C   0  0  0  0  0  0  0  0  0  0  0  0
    7.5699    3.1965    1.3563 N   0  0  0  0  0  0  0  0  0  0  0  0
    8.5541    3.5550    1.0205 H   0  0  0  0  0  0  0  0  0  0  0  0
    6.4100    2.7818    0.6823 N   0  0  0  0  0  0  0  0  0  0  0  0
    8.1743    3.3938    3.7063 N   0  0  0  0  0  0  0  0  0  0  0  0
   -2.3282   -4.0760    0.0020 H   0  0  0  0  0  0  0  0  0  0  0  0
   -0.1737   -2.8571   -0.0120 H   0  0  0  0  0  0  0  0  0  0  0  0
   -4.4856   -2.6535    0.0306 H   0  0  0  0  0  0  0  0  0  0  0  0
   -0.9528    1.9055    0.0170 H   0  0  0  0  0  0  0  0  0  0  0  0
    1.2016    3.1244    0.0074 H   0  0  0  0  0  0  0  0  0  0  0  0
    4.4039    1.1262   -0.5521 H   0  0  0  0  0  0  0  0  0  0  0  0
    3.7988    2.8174   -0.5380 H   0  0  0  0  0  0  0  0  0  0  0  0
    3.5687    1.7583    2.1949 H   0  0  0  0  0  0  0  0  0  0  0  0
    9.1877    3.7579    3.4819 H   0  0  0  0  0  0  0  0  0  0  0  0
    7.8529    3.2707    4.7511 H   0  0  0  0  0  0  0  0  0  0  0  0
  1  5  2  0  0  0  0
  1  2  1  0  0  0  0
  1 20  1  0  0  0  0
  2  3  2  0  0  0  0
  2 21  1  0  0  0  0
  3  4  1  0  0  0  0
  3  6  1  0  0  0  0
  4  5  1  0  0  0  0
  5 22  1  0  0  0  0
  6 10  1  0  0  0  0
  6  7  2  0  0  0  0
  7  8  1  0  0  0  0
  7 23  1  0  0  0  0
  8  9  2  0  0  0  0
  8 24  1  0  0  0  0
  9 10  1  0  0  0  0
  9 11  1  0  0  0  0
 11 12  1  0  0  0  0
 11 25  1  0  0  0  0
 11 26  1  0  0  0  0
 12 13  1  0  0  0  0
 12 27  1  0  0  0  0
 13 18  2  0  0  0  0
 13 14  1  0  0  0  0
 14 15  2  0  0  0  0
 15 16  1  0  0  0  0
 15 19  1  0  0  0  0
 16 17  1  0  0  0  0
 16 18  1  0  0  0  0
 19 28  1  0  0  0  0
 19 29  1  0  0  0  0
M  END
$$$$
ZINC02026542
 OpenBabel01252620473D

 58 60  0  0  0  0  0  0  0  0999 V2000
   -3.4363    0.0613   -6.6656 C   0  0  0  0  0  0  0  0  0  0  0  0
   -3.6374    1.0202   -5.4905 C   0  0  0  0  0  0  0  0  0  0  0  0
   -4.3059    0.2895   -4.3546 C   0  0  0  0  0  0  0  0  0  0  0  0
   -3.7768   -0.3749   -3.3474 N   0  0  0  0  0  0  0  0  0  0  0  0
   -4.4841   -0.9375   -2.4677 N   0  0  0  0  0  0  0  0  0  0  0  0
   -5.8093   -0.8945   -2.5033 C   0  0  0  0  0  0  0  0  0  0  0  0
   -6.0456    0.0832   -3.9847 S   0  0  0  0  0  0  0  0  0  0  0  0
   -6.7438   -1.4445   -1.6384 N   0  0  0  0  0  2  0  0  0  0  0  0
   -6.2419   -2.3114   -0.3197 S   0  0  0  0  0  0  0  0  0  0  0  0
   -5.6092   -3.4815   -0.8196 O   0  0  0  0  0  0  0  0  0  0  0  0
   -5.5788   -1.3950    0.5404 O   0  0  0  0  0  0  0  0  0  0  0  0
   -7.6880   -2.8463    0.5332 C   0  0  0  0  0  0  0  0  0  0  0  0
   -8.2429   -2.0491    1.5176 C   0  0  0  0  0  0  0  0  0  0  0  0
   -9.3763   -2.4654    2.1880 C   0  0  0  0  0  0  0  0  0  0  0  0
   -9.9591   -3.6859    1.8723 C   0  0  0  0  0  0  0  0  0  0  0  0
   -9.3996   -4.4839    0.8828 C   0  0  0  0  0  0  0  0  0  0  0  0
   -8.2689   -4.0596    0.2128 C   0  0  0  0  0  0  0  0  0  0  0  0
  -11.1066   -4.1106    2.5496 N   0  0  0  0  0  0  0  0  0  0  0  0
  -12.0164   -3.2076    2.9659 C   0  0  0  0  0  0  0  0  0  0  0  0
  -11.8889   -2.0355    2.6698 O   0  0  0  0  0  0  0  0  0  0  0  0
  -13.1692   -3.6424    3.7825 C   0  0  0  0  0  0  0  0  0  0  0  0
  -13.3155   -4.9867    4.1290 C   0  0  0  0  0  0  0  0  0  0  0  0
  -14.3935   -5.3858    4.8917 C   0  0  0  0  0  0  0  0  0  0  0  0
  -15.3287   -4.4571    5.3127 C   0  0  0  0  0  0  0  0  0  0  0  0
  -15.1897   -3.1231    4.9726 C   0  0  0  0  0  0  0  0  0  0  0  0
  -14.1133   -2.7098    4.2153 C   0  0  0  0  0  0  0  0  0  0  0  0
  -16.7032   -4.9755    6.2856 S   0  0  0  0  0  0  0  0  0  0  0  0
  -17.7253   -4.0073    6.0931 O   0  0  0  0  0  0  0  0  0  0  0  0
  -16.8993   -6.3555    6.0088 O   0  0  0  0  0  0  0  0  0  0  0  0
  -16.2459   -4.8717    7.8738 N   0  0  0  0  0  0  0  0  0  0  0  0
  -16.4644   -3.6296    8.6193 C   0  0  0  0  0  0  0  0  0  0  0  0
  -17.7858   -3.7202    9.3851 C   0  0  0  0  0  0  0  0  0  0  0  0
  -15.6228   -6.0219    8.5333 C   0  0  0  0  0  0  0  0  0  0  0  0
  -14.1004   -5.8858    8.4654 C   0  0  0  0  0  0  0  0  0  0  0  0
   -2.9528    0.5898   -7.4872 H   0  0  0  0  0  0  0  0  0  0  0  0
   -2.8090   -0.7726   -6.3508 H   0  0  0  0  0  0  0  0  0  0  0  0
   -4.4039   -0.3164   -6.9960 H   0  0  0  0  0  0  0  0  0  0  0  0
   -2.6698    1.3979   -5.1601 H   0  0  0  0  0  0  0  0  0  0  0  0
   -4.2648    1.8541   -5.8053 H   0  0  0  0  0  0  0  0  0  0  0  0
   -7.7892   -1.1002    1.7627 H   0  0  0  0  0  0  0  0  0  0  0  0
   -9.8087   -1.8427    2.9572 H   0  0  0  0  0  0  0  0  0  0  0  0
   -9.8502   -5.4337    0.6352 H   0  0  0  0  0  0  0  0  0  0  0  0
   -7.8357   -4.6778   -0.5596 H   0  0  0  0  0  0  0  0  0  0  0  0
  -11.2477   -5.0551    2.7197 H   0  0  0  0  0  0  0  0  0  0  0  0
  -12.5865   -5.7127    3.8005 H   0  0  0  0  0  0  0  0  0  0  0  0
  -14.5078   -6.4255    5.1606 H   0  0  0  0  0  0  0  0  0  0  0  0
  -15.9234   -2.4033    5.3041 H   0  0  0  0  0  0  0  0  0  0  0  0
  -14.0035   -1.6675    3.9543 H   0  0  0  0  0  0  0  0  0  0  0  0
  -15.6459   -3.4797    9.3233 H   0  0  0  0  0  0  0  0  0  0  0  0
  -16.5040   -2.7909    7.9242 H   0  0  0  0  0  0  0  0  0  0  0  0
  -18.6043   -3.8701    8.6810 H   0  0  0  0  0  0  0  0  0  0  0  0
  -17.7462   -4.5589   10.0801 H   0  0  0  0  0  0  0  0  0  0  0  0
  -17.9483   -2.7961    9.9398 H   0  0  0  0  0  0  0  0  0  0  0  0
  -15.9383   -6.0577    9.5761 H   0  0  0  0  0  0  0  0  0  0  0  0
  -15.9284   -6.9390    8.0297 H   0  0  0  0  0  0  0  0  0  0  0  0
  -13.7849   -5.8500    7.4227 H   0  0  0  0  0  0  0  0  0  0  0  0
  -13.7948   -4.9687    8.9691 H   0  0  0  0  0  0  0  0  0  0  0  0
  -13.6368   -6.7415    8.9562 H   0  0  0  0  0  0  0  0  0  0  0  0
  1  2  1  0  0  0  0
  1 35  1  0  0  0  0
  1 36  1  0  0  0  0
  1 37  1  0  0  0  0
  2  3  1  0  0  0  0
  2 38  1  0  0  0  0
  2 39  1  0  0  0  0
  3  7  1  0  0  0  0
  3  4  2  0  0  0  0
  4  5  1  0  0  0  0
  5  6  2  0  0  0  0
  6  7  1  0  0  0  0
  6  8  1  0  0  0  0
  8  9  1  0  0  0  0
  9 10  2  0  0  0  0
  9 11  2  0  0  0  0
  9 12  1  0  0  0  0
 12 17  2  0  0  0  0
 12 13  1  0  0  0  0
 13 14  2  0  0  0  0
 13 40  1  0  0  0  0
 14 15  1  0  0  0  0
 14 41  1  0  0  0  0
 15 16  2  0  0  0  0
 15 18  1  0  0  0  0
 16 17  1  0  0  0  0
 16 42  1  0  0  0  0
 17 43  1  0  0  0  0
 18 19  1  0  0  0  0
 18 44  1  0  0  0  0
 19 20  2  0  0  0  0
 19 21  1  0  0  0  0
 21 26  2  0  0  0  0
 21 22  1  0  0  0  0
 22 23  2  0  0  0  0
 22 45  1  0  0  0  0
 23 24  1  0  0  0  0
 23 46  1  0  0  0  0
 24 25  2  0  0  0  0
 24 27  1  0  0  0  0
 25 26  1  0  0  0  0
 25 47  1  0  0  0  0
 26 48  1  0  0  0  0
 27 28  2  0  0  0  0
 27 29  2  0  0  0  0
 27 30  1  0  0  0  0
 30 31  1  0  0  0  0
 30 33  1  0  0  0  0
 31 32  1  0  0  0  0
 31 49  1  0  0  0  0
 31 50  1  0  0  0  0
 32 51  1  0  0  0  0
 32 52  1  0  0  0  0
 32 53  1  0  0  0  0
 33 34  1  0  0  0  0
 33 54  1  0  0  0  0
 33 55  1  0  0  0  0
 34 56  1  0  0  0  0
 34 57  1  0  0  0  0
 34 58  1  0  0  0  0
M  END
$$$$
ZINC13035999
 OpenBabel01252620473D

 50 52  0  0  1  0  0  0  0  0999 V2000
    1.2453   -9.1300   -4.8008 C   0  0  0  0  0  0  0  0  0  0  0  0
    1.2212   -7.8141   -5.4443 N   0  0  0  0  0  0  0  0  0  0  0  0
    1.2005   -7.5514   -6.7863 C   0  0  0  0  0  0  0  0  0  0  0  0
    1.1889   -6.2562   -6.9278 N   0  0  0  0  0  0  0  0  0  0  0  0
    1.1952   -5.6864   -5.7758 N   0  0  0  0  0  0  0  0  0  0  0  0
    1.2114   -6.5954   -4.8288 C   0  0  0  0  0  0  0  0  0  0  0  0
    1.2254   -6.2988   -3.0920 S   0  0  0  0  0  0  0  0  0  0  0  0
    1.2104   -4.4889   -3.0821 C   0  0  0  0  0  0  0  0  0  0  0  0
    1.2198   -3.9942   -1.6586 C   0  0  0  0  0  0  0  0  0  0  0  0
    1.2351   -4.7872   -0.7411 O   0  0  0  0  0  0  0  0  0  0  0  0
    1.2112   -2.6705   -1.4051 N   0  0  0  0  0  0  0  0  0  0  0  0
    1.2203   -2.1896   -0.0214 C   0  0  0  0  0  0  0  0  0  0  0  0
    1.2078   -0.6827   -0.0131 C   0  0  0  0  0  0  0  0  0  0  0  0
    0.0021   -0.0041    0.0020 C   0  0  0  0  0  0  0  0  0  0  0  0
   -0.0166    1.3752    0.0096 C   0  0  0  0  0  0  0  0  0  0  0  0
    1.1849    2.0865    0.0020 C   0  0  0  0  0  0  0  0  0  0  0  0
    2.3980    1.3954   -0.0124 C   0  0  0  0  0  0  0  0  0  0  0  0
    2.4021    0.0160   -0.0203 C   0  0  0  0  0  0  0  0  0  0  0  0
    1.1726    3.5637    0.0095 C   0  0  0  0  0  0  0  0  0  0  0  0
    0.1157    4.1623    0.0224 O   0  0  0  0  0  0  0  0  0  0  0  0
    1.1981   -8.5711   -7.8959 C   0  0  0  0  0  0  0  0  0  0  0  0
    2.6396   -8.9043   -8.2855 C   0  0  1  0  0  0  0  0  0  0  0  0
    3.1972   -9.2150   -7.4020 H   0  0  0  0  0  0  0  0  0  0  0  0
    2.6478  -10.0340   -9.3287 C   0  0  0  0  0  0  0  0  0  0  0  0
    4.0550  -10.1582   -9.9610 C   0  0  0  0  0  0  0  0  0  0  0  0
    4.7143   -8.4472   -9.8184 S   0  0  0  0  0  0  0  0  0  0  0  0
    5.8572   -8.4611   -8.9741 O   0  0  0  0  0  0  0  0  0  0  0  0
    4.8114   -7.8794  -11.1174 O   0  0  0  0  0  0  0  0  0  0  0  0
    3.3147   -7.6547   -8.9196 C   0  0  0  0  0  0  0  0  0  0  0  0
    0.2237   -9.4702   -4.6310 H   0  0  0  0  0  0  0  0  0  0  0  0
    1.7623   -9.8405   -5.4458 H   0  0  0  0  0  0  0  0  0  0  0  0
    1.7677   -9.0584   -3.8468 H   0  0  0  0  0  0  0  0  0  0  0  0
    0.3126   -4.1302   -3.5855 H   0  0  0  0  0  0  0  0  0  0  0  0
    2.0924   -4.1154   -3.6024 H   0  0  0  0  0  0  0  0  0  0  0  0
    1.1989   -2.0362   -2.1389 H   0  0  0  0  0  0  0  0  0  0  0  0
    2.1181   -2.5483    0.4820 H   0  0  0  0  0  0  0  0  0  0  0  0
    0.3383   -2.5631    0.4989 H   0  0  0  0  0  0  0  0  0  0  0  0
   -0.9265   -0.5555    0.0083 H   0  0  0  0  0  0  0  0  0  0  0  0
   -0.9585    1.9037    0.0169 H   0  0  0  0  0  0  0  0  0  0  0  0
    3.3309    1.9395   -0.0173 H   0  0  0  0  0  0  0  0  0  0  0  0
    3.3397   -0.5199   -0.0318 H   0  0  0  0  0  0  0  0  0  0  0  0
    0.6949   -9.4764   -7.5563 H   0  0  0  0  0  0  0  0  0  0  0  0
    0.6724   -8.1659   -8.7606 H   0  0  0  0  0  0  0  0  0  0  0  0
    2.3840  -10.9747   -8.8454 H   0  0  0  0  0  0  0  0  0  0  0  0
    1.9198   -9.8115  -10.1088 H   0  0  0  0  0  0  0  0  0  0  0  0
    4.6716  -10.8582   -9.3973 H   0  0  0  0  0  0  0  0  0  0  0  0
    3.9838  -10.4591  -11.0063 H   0  0  0  0  0  0  0  0  0  0  0  0
    2.6390   -7.1491   -9.6095 H   0  0  0  0  0  0  0  0  0  0  0  0
    3.6762   -6.9700   -8.1524 H   0  0  0  0  0  0  0  0  0  0  0  0
    2.3336    4.2470    0.0021 O   0  0  0  0  0  1  0  0  0  0  0  0
  1  2  1  0  0  0  0
  1 30  1  0  0  0  0
  1 31  1  0  0  0  0
  1 32  1  0  0  0  0
  2  6  1  0  0  0  0
  2  3  1  0  0  0  0
  3  4  2  0  0  0  0
  3 21  1  0  0  0  0
  4  5  1  0  0  0  0
  5  6  2  0  0  0  0
  6  7  1  0  0  0  0
  7  8  1  0  0  0  0
  8  9  1  0  0  0  0
  8 33  1  0  0  0  0
  8 34  1  0  0  0  0
  9 10  2  0  0  0  0
  9 11  1  0  0  0  0
 11 12  1  0  0  0  0
 11 35  1  0  0  0  0
 12 13  1  0  0  0  0
 12 36  1  0  0  0  0
 12 37  1  0  0  0  0
 13 18  2  0  0  0  0
 13 14  1  0  0  0  0
 14 15  2  0  0  0  0
 14 38  1  0  0  0  0
 15 16  1  0  0  0  0
 15 39  1  0  0  0  0
 16 17  2  0  0  0  0
 16 19  1  0  0  0  0
 17 18  1  0  0  0  0
 17 40  1  0  0  0  0
 18 41  1  0  0  0  0
 19 20  2  0  0  0  0
 19 50  1  0  0  0  0
 21 22  1  0  0  0  0
 21 42  1  0  0  0  0
 21 43  1  0  0  0  0
 22 23  1  1  0  0  0
 22 29  1  0  0  0  0
 22 24  1  0  0  0  0
 24 25  1  0  0  0  0
 24 44  1  0  0  0  0
 24 45  1  0  0  0  0
 25 26  1  0  0  0  0
 25 46  1  0  0  0  0
 25 47  1  0  0  0  0
 26 27  2  0  0  0  0
 26 28  2  0  0  0  0
 26 29  1  0  0  0  0
 29 48  1  0  0  0  0
 29 49  1  0  0  0  0
M  END
$$$$
ZINC08576338
 OpenBabel01252620473D

 44 46  0  0  0  0  0  0  0  0999 V2000
    1.0585   -2.4186    0.4462 C   0  0  0  0  0  0  0  0  0  0  0  0
    0.2220   -0.8494    0.0878 S   0  0  0  0  0  0  0  0  0  0  0  0
   -1.1467   -1.0824   -0.2152 O   0  0  0  0  0  0  0  0  0  0  0  0
    0.5952    0.1337    1.0436 O   0  0  0  0  0  0  0  0  0  0  0  0
    0.8871   -0.3281   -1.3364 N   0  0  0  0  0  0  0  0  0  0  0  0
    2.2358    0.0059   -1.3927 C   0  0  0  0  0  0  0  0  0  0  0  0
    2.6786    1.2032   -0.8373 C   0  0  0  0  0  0  0  0  0  0  0  0
    4.0126    1.5366   -0.8914 C   0  0  0  0  0  0  0  0  0  0  0  0
    4.9235    0.6715   -1.5049 C   0  0  0  0  0  0  0  0  0  0  0  0
    4.4756   -0.5302   -2.0617 C   0  0  0  0  0  0  0  0  0  0  0  0
    3.1412   -0.8604   -1.9993 C   0  0  0  0  0  0  0  0  0  0  0  0
    6.3539    1.0260   -1.5650 C   0  0  0  0  0  0  0  0  0  0  0  0
    6.7421    2.0717   -1.0807 O   0  0  0  0  0  0  0  0  0  0  0  0
    7.2308    0.1909   -2.1568 N   0  0  0  0  0  0  0  0  0  0  0  0
    8.5706    0.5673   -2.2952 C   0  0  0  0  0  0  0  0  0  0  0  0
    9.2839    0.1975   -3.4281 C   0  0  0  0  0  0  0  0  0  0  0  0
   10.6068    0.5708   -3.5617 C   0  0  0  0  0  0  0  0  0  0  0  0
   11.2215    1.3116   -2.5688 C   0  0  0  0  0  0  0  0  0  0  0  0
   10.5141    1.6813   -1.4395 C   0  0  0  0  0  0  0  0  0  0  0  0
    9.1891    1.3166   -1.3026 C   0  0  0  0  0  0  0  0  0  0  0  0
   12.9098    1.7848   -2.7426 S   0  0  0  0  0  0  0  0  0  0  0  0
   13.4068    2.0059   -1.4298 O   0  0  0  0  0  0  0  0  0  0  0  0
   13.5034    0.8515   -3.6348 O   0  0  0  0  0  0  0  0  0  0  0  0
   12.9305    3.2521   -3.5099 N   0  0  0  0  0  2  0  0  0  0  0  0
   14.1386    3.8745   -3.7828 C   0  0  0  0  0  0  0  0  0  0  0  0
   15.3556    3.4513   -3.5146 N   0  0  0  0  0  0  0  0  0  0  0  0
   16.4151    4.1693   -3.8435 C   0  0  0  0  0  0  0  0  0  0  0  0
   16.1893    5.3516   -4.4647 C   0  0  0  0  0  0  0  0  0  0  0  0
   14.4057    5.3514   -4.5443 S   0  0  0  0  0  0  0  0  0  0  0  0
    0.9405   -3.0949   -0.4005 H   0  0  0  0  0  0  0  0  0  0  0  0
    2.1188   -2.2340    0.6187 H   0  0  0  0  0  0  0  0  0  0  0  0
    0.6188   -2.8698    1.3356 H   0  0  0  0  0  0  0  0  0  0  0  0
    0.3360   -0.2557   -2.1313 H   0  0  0  0  0  0  0  0  0  0  0  0
    1.9744    1.8713   -0.3638 H   0  0  0  0  0  0  0  0  0  0  0  0
    4.3554    2.4658   -0.4606 H   0  0  0  0  0  0  0  0  0  0  0  0
    5.1767   -1.2004   -2.5366 H   0  0  0  0  0  0  0  0  0  0  0  0
    2.7952   -1.7908   -2.4250 H   0  0  0  0  0  0  0  0  0  0  0  0
    6.9327   -0.6712   -2.4867 H   0  0  0  0  0  0  0  0  0  0  0  0
    8.8047   -0.3816   -4.2036 H   0  0  0  0  0  0  0  0  0  0  0  0
   11.1621    0.2836   -4.4423 H   0  0  0  0  0  0  0  0  0  0  0  0
   10.9971    2.2596   -0.6657 H   0  0  0  0  0  0  0  0  0  0  0  0
    8.6358    1.6097   -0.4227 H   0  0  0  0  0  0  0  0  0  0  0  0
   17.4167    3.8286   -3.6263 H   0  0  0  0  0  0  0  0  0  0  0  0
   16.8943    6.0896   -4.8180 H   0  0  0  0  0  0  0  0  0  0  0  0
  1  2  1  0  0  0  0
  1 30  1  0  0  0  0
  1 31  1  0  0  0  0
  1 32  1  0  0  0  0
  2  3  2  0  0  0  0
  2  4  2  0  0  0  0
  2  5  1  0  0  0  0
  5  6  1  0  0  0  0
  5 33  1  0  0  0  0
  6 11  2  0  0  0  0
  6  7  1  0  0  0  0
  7  8  2  0  0  0  0
  7 34  1  0  0  0  0
  8  9  1  0  0  0  0
  8 35  1  0  0  0  0
  9 10  2  0  0  0  0
  9 12  1  0  0  0  0
 10 11  1  0  0  0  0
 10 36  1  0  0  0  0
 11 37  1  0  0  0  0
 12 13  2  0  0  0  0
 12 14  1  0  0  0  0
 14 15  1  0  0  0  0
 14 38  1  0  0  0  0
 15 20  2  0  0  0  0
 15 16  1  0  0  0  0
 16 17  2  0  0  0  0
 16 39  1  0  0  0  0
 17 18  1  0  0  0  0
 17 40  1  0  0  0  0
 18 19  2  0  0  0  0
 18 21  1  0  0  0  0
 19 20  1  0  0  0  0
 19 41  1  0  0  0  0
 20 42  1  0  0  0  0
 21 22  2  0  0  0  0
 21 23  2  0  0  0  0
 21 24  1  0  0  0  0
 24 25  1  0  0  0  0
 25 29  1  0  0  0  0
 25 26  2  0  0  0  0
 26 27  1  0  0  0  0
 27 28  2  0  0  0  0
 27 43  1  0  0  0  0
 28 29  1  0  0  0  0
 28 44  1  0  0  0  0
M  END
$$$$
ZINC50976560
 OpenBabel01252620473D

 40 41  0  0  0  0  0  0  0  0999 V2000
    1.6088   -2.3637   -1.7313 C   0  0  0  0  0  0  0  0  0  0  0  0
    0.6776   -1.6549   -0.7456 C   0  0  0  0  0  0  0  0  0  0  0  0
   -0.6050   -2.2846   -0.7652 O   0  0  0  0  0  0  0  0  0  0  0  0
   -1.5482   -1.7772    0.0526 C   0  0  0  0  0  0  0  0  0  0  0  0
   -1.2886   -0.8261    0.7629 O   0  0  0  0  0  0  0  0  0  0  0  0
   -2.8952   -2.3760    0.0856 C   0  0  0  0  0  0  0  0  0  0  0  0
   -3.1939   -3.4741   -0.7268 C   0  0  0  0  0  0  0  0  0  0  0  0
   -4.4521   -4.0309   -0.6932 C   0  0  0  0  0  0  0  0  0  0  0  0
   -5.4267   -3.5019    0.1479 C   0  0  0  0  0  0  0  0  0  0  0  0
   -5.1330   -2.4087    0.9576 C   0  0  0  0  0  0  0  0  0  0  0  0
   -3.8750   -1.8508    0.9335 C   0  0  0  0  0  0  0  0  0  0  0  0
   -6.6993   -4.0678    0.1790 N   0  0  0  0  0  0  0  0  0  0  0  0
   -6.8529   -5.4099   -0.0007 C   0  0  0  0  0  0  0  0  0  0  0  0
   -5.7702   -6.2029   -0.1085 O   0  5  0  0  0  0  0  0  0  0  0  0
   -8.1320   -5.9622   -0.0729 C   0  0  0  0  0  0  0  0  0  0  0  0
   -9.2836   -5.1188    0.0418 C   0  0  0  0  0  0  0  0  0  0  0  0
  -10.1971   -4.4497    0.1328 N   0  0  0  0  0  0  0  0  0  0  0  0
   -8.2967   -7.4014   -0.2656 C   0  0  0  0  0  0  0  0  0  0  0  0
   -7.3232   -8.1330   -0.2511 O   0  0  0  0  0  0  0  0  0  0  0  0
   -9.6460   -7.9697   -0.4784 C   0  0  0  0  0  0  0  0  0  0  0  0
  -10.6514   -7.2078   -1.0856 C   0  0  0  0  0  0  0  0  0  0  0  0
  -11.8962   -7.7853   -1.2623 C   0  0  0  0  0  0  0  0  0  0  0  0
  -12.1065   -9.0849   -0.8375 C   0  0  0  0  0  3  0  0  0  0  0  0
  -11.1396   -9.7802   -0.2675 N   0  0  0  0  0  0  0  0  0  0  0  0
  -11.4011  -11.1075    0.1510 O   0  5  0  0  0  0  0  0  0  0  0  0
   -9.9360   -9.2755   -0.0824 C   0  0  0  0  0  0  0  0  0  0  0  0
    2.5871   -1.8834   -1.7164 H   0  0  0  0  0  0  0  0  0  0  0  0
    1.7132   -3.4100   -1.4442 H   0  0  0  0  0  0  0  0  0  0  0  0
    1.1893   -2.3026   -2.7355 H   0  0  0  0  0  0  0  0  0  0  0  0
    1.0971   -1.7160    0.2586 H   0  0  0  0  0  0  0  0  0  0  0  0
    0.5731   -0.6086   -1.0327 H   0  0  0  0  0  0  0  0  0  0  0  0
   -2.4383   -3.8846   -1.3802 H   0  0  0  0  0  0  0  0  0  0  0  0
   -4.6835   -4.8791   -1.3205 H   0  0  0  0  0  0  0  0  0  0  0  0
   -5.8918   -2.0002    1.6085 H   0  0  0  0  0  0  0  0  0  0  0  0
   -3.6464   -1.0053    1.5654 H   0  0  0  0  0  0  0  0  0  0  0  0
   -7.4761   -3.5064    0.3286 H   0  0  0  0  0  0  0  0  0  0  0  0
  -10.4602   -6.1949   -1.4077 H   0  0  0  0  0  0  0  0  0  0  0  0
  -12.6956   -7.2271   -1.7268 H   0  0  0  0  0  0  0  0  0  0  0  0
  -13.0774   -9.5379   -0.9738 H   0  0  0  0  0  0  0  0  0  0  0  0
   -9.1691   -9.8766    0.3833 H   0  0  0  0  0  0  0  0  0  0  0  0
  1  2  1  0  0  0  0
  1 27  1  0  0  0  0
  1 28  1  0  0  0  0
  1 29  1  0  0  0  0
  2  3  1  0  0  0  0
  2 30  1  0  0  0  0
  2 31  1  0  0  0  0
  3  4  1  0  0  0  0
  4  5  2  0  0  0  0
  4  6  1  0  0  0  0
  6 11  2  0  0  0  0
  6  7  1  0  0  0  0
  7  8  2  0  0  0  0
  7 32  1  0  0  0  0
  8  9  1  0  0  0  0
  8 33  1  0  0  0  0
  9 10  2  0  0  0  0
  9 12  1  0  0  0  0
 10 11  1  0  0  0  0
 10 34  1  0  0  0  0
 11 35  1  0  0  0  0
 12 13  1  0  0  0  0
 12 36  1  0  0  0  0
 13 14  1  0  0  0  0
 13 15  2  0  0  0  0
 15 16  1  0  0  0  0
 15 18  1  0  0  0  0
 16 17  3  0  0  0  0
 18 19  2  0  0  0  0
 18 20  1  0  0  0  0
 20 26  2  0  0  0  0
 20 21  1  0  0  0  0
 21 22  2  0  0  0  0
 21 37  1  0  0  0  0
 22 23  1  0  0  0  0
 22 38  1  0  0  0  0
 23 24  1  0  0  0  0
 23 39  1  0  0  0  0
 24 25  1  0  0  0  0
 24 26  1  0  0  0  0
 26 40  1  0  0  0  0
M  CHG  2  14  -1  25  -1
M  END
$$$$
ZINC02441659
 OpenBabel01252620473D

 45 47  0  0  1  0  0  0  0  0999 V2000
   -3.4717    1.8733    0.2603 C   0  0  0  0  0  0  0  0  0  0  0  0
   -3.8154    0.5133    0.5331 O   0  0  0  0  0  0  0  0  0  0  0  0
   -2.8646   -0.4261    0.2819 C   0  0  0  0  0  0  0  0  0  0  0  0
   -1.6264   -0.0464   -0.2106 C   0  0  0  0  0  0  0  0  0  0  0  0
   -0.6609   -1.0026   -0.4649 C   0  0  0  0  0  0  0  0  0  0  0  0
   -0.9277   -2.3385   -0.2293 C   0  0  0  0  0  0  0  0  0  0  0  0
   -2.1611   -2.7241    0.2616 C   0  0  0  0  0  0  0  0  0  0  0  0
   -3.1312   -1.7702    0.5245 C   0  0  0  0  0  0  0  0  0  0  0  0
   -4.3430   -2.1472    1.0131 O   0  0  0  0  0  0  0  0  0  0  0  0
   -5.3960   -2.3316    0.0649 C   0  0  0  0  0  0  0  0  0  0  0  0
   -2.4486   -4.1813    0.5167 C   0  0  0  0  0  0  0  0  0  0  0  0
   -2.2756   -4.4709    1.9423 N   0  0  0  0  0  0  0  0  0  0  0  0
   -1.0944   -4.7558    2.5301 C   0  0  0  0  0  0  0  0  0  0  0  0
   -0.0044   -4.8203    2.0030 O   0  0  0  0  0  0  0  0  0  0  0  0
   -1.4263   -4.9770    3.9928 C   0  0  1  0  0  0  0  0  0  0  0  0
   -2.8821   -4.7720    4.0588 N   0  0  0  0  0  0  0  0  0  0  0  0
   -3.2906   -4.4840    2.8645 C   0  0  0  0  0  0  0  0  0  0  0  0
   -4.5811   -4.2281    2.5582 O   0  5  0  0  0  0  0  0  0  0  0  0
   -1.0649   -6.4022    4.4161 C   0  0  0  0  0  0  0  0  0  0  0  0
    0.3050   -6.6122    4.2248 F   0  0  0  0  0  0  0  0  0  0  0  0
   -1.3800   -6.5814    5.7673 F   0  0  0  0  0  0  0  0  0  0  0  0
   -1.7892   -7.3160    3.6431 F   0  0  0  0  0  0  0  0  0  0  0  0
   -0.7307   -3.9979    4.8318 N   0  0  0  0  0  0  0  0  0  0  0  0
    0.6158   -3.9404    4.8248 C   0  0  0  0  0  0  0  0  0  0  0  0
    1.2538   -4.7017    4.1217 O   0  0  0  0  0  0  0  0  0  0  0  0
    1.3123   -2.9603    5.6646 C   0  0  0  0  0  0  0  0  0  0  0  0
    2.6647   -2.7923    5.7481 C   0  0  0  0  0  0  0  0  0  0  0  0
    2.8864   -1.7519    6.6639 C   0  0  0  0  0  0  0  0  0  0  0  0
    1.6748   -1.3357    7.0938 C   0  0  0  0  0  0  0  0  0  0  0  0
    0.7286   -2.0629    6.4857 O   0  0  0  0  0  0  0  0  0  0  0  0
   -4.3165    2.5174    0.5039 H   0  0  0  0  0  0  0  0  0  0  0  0
   -2.6109    2.1588    0.8650 H   0  0  0  0  0  0  0  0  0  0  0  0
   -3.2254    1.9809   -0.7960 H   0  0  0  0  0  0  0  0  0  0  0  0
   -1.4157    0.9964   -0.3962 H   0  0  0  0  0  0  0  0  0  0  0  0
    0.3038   -0.7053   -0.8488 H   0  0  0  0  0  0  0  0  0  0  0  0
   -0.1709   -3.0825   -0.4296 H   0  0  0  0  0  0  0  0  0  0  0  0
   -6.3235   -2.5572    0.5912 H   0  0  0  0  0  0  0  0  0  0  0  0
   -5.5223   -1.4203   -0.5197 H   0  0  0  0  0  0  0  0  0  0  0  0
   -5.1454   -3.1581   -0.6002 H   0  0  0  0  0  0  0  0  0  0  0  0
   -3.4735   -4.4064    0.2219 H   0  0  0  0  0  0  0  0  0  0  0  0
   -1.7602   -4.7946   -0.0648 H   0  0  0  0  0  0  0  0  0  0  0  0
   -1.2392   -3.3911    5.3922 H   0  0  0  0  0  0  0  0  0  0  0  0
    3.4180   -3.3516    5.2132 H   0  0  0  0  0  0  0  0  0  0  0  0
    3.8450   -1.3583    6.9680 H   0  0  0  0  0  0  0  0  0  0  0  0
    1.4983   -0.5447    7.8077 H   0  0  0  0  0  0  0  0  0  0  0  0
  1  2  1  0  0  0  0
  1 31  1  0  0  0  0
  1 32  1  0  0  0  0
  1 33  1  0  0  0  0
  2  3  1  0  0  0  0
  3  8  2  0  0  0  0
  3  4  1  0  0  0  0
  4  5  2  0  0  0  0
  4 34  1  0  0  0  0
  5  6  1  0  0  0  0
  5 35  1  0  0  0  0
  6  7  2  0  0  0  0
  6 36  1  0  0  0  0
  7  8  1  0  0  0  0
  7 11  1  0  0  0  0
  8  9  1  0  0  0  0
  9 10  1  0  0  0  0
 10 37  1  0  0  0  0
 10 38  1  0  0  0  0
 10 39  1  0  0  0  0
 11 12  1  0  0  0  0
 11 40  1  0  0  0  0
 11 41  1  0  0  0  0
 12 17  1  0  0  0  0
 12 13  1  0  0  0  0
 13 14  2  0  0  0  0
 13 15  1  0  0  0  0
 15 16  1  0  0  0  0
 15 19  1  1  0  0  0
 15 23  1  0  0  0  0
 16 17  2  0  0  0  0
 17 18  1  0  0  0  0
 19 20  1  0  0  0  0
 19 21  1  0  0  0  0
 19 22  1  0  0  0  0
 23 24  1  0  0  0  0
 23 42  1  0  0  0  0
 24 25  2  0  0  0  0
 24 26  1  0  0  0  0
 26 30  1  0  0  0  0
 26 27  2  0  0  0  0
 27 28  1  0  0  0  0
 27 43  1  0  0  0  0
 28 29  2  0  0  0  0
 28 44  1  0  0  0  0
 29 30  1  0  0  0  0
 29 45  1  0  0  0  0
M  CHG  1  18  -1
M  END
$$$$
ZINC06146133
 OpenBabel01252620473D

 48 50  0  0  0  0  0  0  0  0999 V2000
    8.8182    3.9397   -3.5194 C   0  0  0  0  0  0  0  0  0  0  0  0
    7.4016    3.3927   -3.3327 C   0  0  0  0  0  0  0  0  0  0  0  0
    7.3673    2.5248   -2.1691 O   0  0  0  0  0  0  0  0  0  0  0  0
    6.1884    1.9598   -1.8648 C   0  0  0  0  0  0  0  0  0  0  0  0
    5.2172    2.1829   -2.5481 O   0  0  0  0  0  0  0  0  0  0  0  0
    6.0761    1.0470   -0.6709 C   0  0  0  0  0  0  0  0  0  0  0  0
    4.6589    0.5490   -0.5509 C   0  0  0  0  0  0  0  0  0  0  0  0
    4.3922   -0.7792   -0.5046 C   0  0  0  0  0  0  0  0  0  0  0  0
    2.6109   -0.7555   -0.3656 S   0  0  0  0  0  0  0  0  0  0  0  0
    2.4058    0.9688   -0.3825 C   0  0  0  0  0  0  0  0  0  0  0  0
    3.6490    1.3951   -0.4938 N   0  0  0  0  0  0  0  0  0  0  0  0
    1.2331    1.7089   -0.3048 N   0  0  0  0  0  0  0  0  0  0  0  0
    0.0454    1.0806   -0.1993 C   0  0  0  0  0  0  0  0  0  0  0  0
    0.0006   -0.1344   -0.1721 O   0  0  0  0  0  0  0  0  0  0  0  0
   -1.1995    1.8659   -0.1229 C   0  0  0  0  0  0  0  0  0  0  0  0
   -1.1527    3.2624   -0.1480 C   0  0  0  0  0  0  0  0  0  0  0  0
   -2.3201    3.9904   -0.0812 C   0  0  0  0  0  0  0  0  0  0  0  0
   -3.5428    3.3456    0.0216 C   0  0  0  0  0  0  0  0  0  0  0  0
   -3.6056    1.9677    0.0529 C   0  0  0  0  0  0  0  0  0  0  0  0
   -2.4393    1.2159   -0.0188 C   0  0  0  0  0  0  0  0  0  0  0  0
   -2.4998   -0.1712    0.0130 N   0  0  0  0  0  2  0  0  0  0  0  0
   -3.2176   -0.9973   -1.2299 S   0  0  0  0  0  0  0  0  0  0  0  0
   -3.1220   -2.3781   -0.9083 O   0  0  0  0  0  0  0  0  0  0  0  0
   -4.4617   -0.3572   -1.4780 O   0  0  0  0  0  0  0  0  0  0  0  0
   -2.2263   -0.7446   -2.6645 C   0  0  0  0  0  0  0  0  0  0  0  0
   -1.5716   -1.8126   -3.2489 C   0  0  0  0  0  0  0  0  0  0  0  0
   -0.7946   -1.6160   -4.3745 C   0  0  0  0  0  0  0  0  0  0  0  0
   -0.6705   -0.3483   -4.9183 C   0  0  0  0  0  0  0  0  0  0  0  0
   -1.3252    0.7218   -4.3338 C   0  0  0  0  0  0  0  0  0  0  0  0
   -2.1080    0.5227   -3.2094 C   0  0  0  0  0  0  0  0  0  0  0  0
   -2.7520    1.5655   -2.6411 F   0  0  0  0  0  0  0  0  0  0  0  0
    0.0895   -0.1564   -6.0185 F   0  0  0  0  0  0  0  0  0  0  0  0
    8.8441    4.5972   -4.4009 H   0  0  0  0  0  0  0  0  0  0  0  0
    9.5179    3.1035   -3.6649 H   0  0  0  0  0  0  0  0  0  0  0  0
    9.1110    4.5117   -2.6266 H   0  0  0  0  0  0  0  0  0  0  0  0
    6.7019    4.2289   -3.1872 H   0  0  0  0  0  0  0  0  0  0  0  0
    7.1088    2.8207   -4.2255 H   0  0  0  0  0  0  0  0  0  0  0  0
    6.7558    0.1916   -0.7982 H   0  0  0  0  0  0  0  0  0  0  0  0
    6.3489    1.5997    0.2402 H   0  0  0  0  0  0  0  0  0  0  0  0
    5.0694   -1.6197   -0.5415 H   0  0  0  0  0  0  0  0  0  0  0  0
    1.2737    2.8079   -0.3294 H   0  0  0  0  0  0  0  0  0  0  0  0
   -0.2025    3.7702   -0.2235 H   0  0  0  0  0  0  0  0  0  0  0  0
   -2.2823    5.0695   -0.1045 H   0  0  0  0  0  0  0  0  0  0  0  0
   -4.4522    3.9255    0.0780 H   0  0  0  0  0  0  0  0  0  0  0  0
   -4.5622    1.4730    0.1335 H   0  0  0  0  0  0  0  0  0  0  0  0
   -1.6678   -2.8015   -2.8256 H   0  0  0  0  0  0  0  0  0  0  0  0
   -0.2841   -2.4513   -4.8307 H   0  0  0  0  0  0  0  0  0  0  0  0
   -1.2290    1.7107   -4.7571 H   0  0  0  0  0  0  0  0  0  0  0  0
  1  2  1  0  0  0  0
  1 33  1  0  0  0  0
  1 34  1  0  0  0  0
  1 35  1  0  0  0  0
  2  3  1  0  0  0  0
  2 36  1  0  0  0  0
  2 37  1  0  0  0  0
  3  4  1  0  0  0  0
  4  5  2  0  0  0  0
  4  6  1  0  0  0  0
  6  7  1  0  0  0  0
  6 38  1  0  0  0  0
  6 39  1  0  0  0  0
  7 11  1  0  0  0  0
  7  8  2  0  0  0  0
  8  9  1  0  0  0  0
  8 40  1  0  0  0  0
  9 10  1  0  0  0  0
 10 11  2  0  0  0  0
 10 12  1  0  0  0  0
 12 13  1  0  0  0  0
 12 41  1  0  0  0  0
 13 14  2  0  0  0  0
 13 15  1  0  0  0  0
 15 20  2  0  0  0  0
 15 16  1  0  0  0  0
 16 17  2  0  0  0  0
 16 42  1  0  0  0  0
 17 18  1  0  0  0  0
 17 43  1  0  0  0  0
 18 19  2  0  0  0  0
 18 44  1  0  0  0  0
 19 20  1  0  0  0  0
 19 45  1  0  0  0  0
 20 21  1  0  0  0  0
 21 22  1  0  0  0  0
 22 23  2  0  0  0  0
 22 24  2  0  0  0  0
 22 25  1  0  0  0  0
 25 30  2  0  0  0  0
 25 26  1  0  0  0  0
 26 27  2  0  0  0  0
 26 46  1  0  0  0  0
 27 28  1  0  0  0  0
 27 47  1  0  0  0  0
 28 29  2  0  0  0  0
 28 32  1  0  0  0  0
 29 30  1  0  0  0  0
 29 48  1  0  0  0  0
 30 31  1  0  0  0  0
M  END
$$$$
ZINC62757687
 OpenBabel01252620473D

 33 34  0  0  1  0  0  0  0  0999 V2000
   -0.0187    1.5258    0.0104 C   0  0  0  0  0  0  0  0  0  0  0  0
    0.0021   -0.0041    0.0020 C   0  0  0  0  0  0  0  0  0  0  0  0
    0.6709   -0.4649   -1.1737 O   0  0  0  0  0  0  0  0  0  0  0  0
    0.7457   -1.8880   -1.2798 C   0  0  2  0  0  0  0  0  0  0  0  0
    0.7769   -2.3256   -0.2819 H   0  0  0  0  0  0  0  0  0  0  0  0
    2.0114   -2.2764   -2.0467 C   0  0  0  0  0  0  0  0  0  0  0  0
    3.1914   -1.8829   -1.2729 N   0  0  0  0  0  0  0  0  0  0  0  0
    3.8367   -0.6871   -1.3386 C   0  0  0  0  0  0  0  0  0  0  0  0
    4.8438   -0.6765   -0.5149 N   0  0  0  0  0  0  0  0  0  0  0  0
    4.9136   -1.8660    0.1362 C   0  0  0  0  0  0  0  0  0  0  0  0
    3.8512   -2.6547   -0.3374 C   0  0  0  0  0  0  0  0  0  0  0  0
    3.6681   -3.9374    0.1600 C   0  0  0  0  0  0  0  0  0  0  0  0
    4.5297   -4.4276    1.1186 C   0  0  0  0  0  0  0  0  0  0  0  0
    5.5764   -3.6474    1.5882 C   0  0  0  0  0  0  0  0  0  0  0  0
    5.7760   -2.3850    1.1050 C   0  0  0  0  0  0  0  0  0  0  0  0
    3.4427    0.4583   -2.2352 C   0  0  0  0  0  0  0  0  0  0  0  0
   -0.4650   -2.4012   -2.0158 C   0  0  0  0  0  0  0  0  0  0  0  0
   -1.2670   -1.6161   -2.4921 O   0  0  0  0  0  0  0  0  0  0  0  0
   -0.6427   -3.6015   -2.1348 O   0  0  0  0  0  1  0  0  0  0  0  0
    1.0039    1.9031    0.0027 H   0  0  0  0  0  0  0  0  0  0  0  0
   -0.5459    1.8868   -0.8726 H   0  0  0  0  0  0  0  0  0  0  0  0
   -0.5289    1.8773    0.9072 H   0  0  0  0  0  0  0  0  0  0  0  0
    0.5293   -0.3651    0.8851 H   0  0  0  0  0  0  0  0  0  0  0  0
   -1.0205   -0.3814    0.0098 H   0  0  0  0  0  0  0  0  0  0  0  0
    2.0237   -3.3548   -2.2050 H   0  0  0  0  0  0  0  0  0  0  0  0
    2.0227   -1.7676   -3.0106 H   0  0  0  0  0  0  0  0  0  0  0  0
    2.8545   -4.5486   -0.2016 H   0  0  0  0  0  0  0  0  0  0  0  0
    4.3886   -5.4255    1.5067 H   0  0  0  0  0  0  0  0  0  0  0  0
    6.2434   -4.0439    2.3394 H   0  0  0  0  0  0  0  0  0  0  0  0
    6.5932   -1.7857    1.4786 H   0  0  0  0  0  0  0  0  0  0  0  0
    2.7381    1.1041   -1.7112 H   0  0  0  0  0  0  0  0  0  0  0  0
    4.3302    1.0313   -2.5038 H   0  0  0  0  0  0  0  0  0  0  0  0
    2.9749    0.0679   -3.1390 H   0  0  0  0  0  0  0  0  0  0  0  0
  1  2  1  0  0  0  0
  1 20  1  0  0  0  0
  1 21  1  0  0  0  0
  1 22  1  0  0  0  0
  2  3  1  0  0  0  0
  2 23  1  0  0  0  0
  2 24  1  0  0  0  0
  3  4  1  0  0  0  0
  4  5  1  1  0  0  0
  4  6  1  0  0  0  0
  4 17  1  0  0  0  0
  6  7  1  0  0  0  0
  6 25  1  0  0  0  0
  6 26  1  0  0  0  0
  7 11  1  0  0  0  0
  7  8  1  0  0  0  0
  8  9  2  0  0  0  0
  8 16  1  0  0  0  0
  9 10  1  0  0  0  0
 10 15  2  0  0  0  0
 10 11  1  0  0  0  0
 11 12  2  0  0  0  0
 12 13  1  0  0  0  0
 12 27  1  0  0  0  0
 13 14  2  0  0  0  0
 13 28  1  0  0  0  0
 14 15  1  0  0  0  0
 14 29  1  0  0  0  0
 15 30  1  0  0  0  0
 16 31  1  0  0  0  0
 16 32  1  0  0  0  0
 16 33  1  0  0  0  0
 17 18  2  0  0  0  0
 17 19  1  0  0  0  0
M  END
$$$$
ZINC25239762
 OpenBabel01252620473D

 44 46  0  0  0  0  0  0  0  0999 V2000
   -0.0178    1.4608    0.0101 C   0  0  0  0  0  0  0  0  0  0  0  0
    0.0021   -0.0041    0.0020 N   0  0  0  0  0  0  0  0  0  0  0  0
    0.0077   -0.7854   -1.0957 C   0  0  0  0  0  0  0  0  0  0  0  0
    0.0281   -2.1053   -0.6600 C   0  0  0  0  0  0  0  0  0  0  0  0
    0.0344   -2.0747    0.7533 C   0  0  0  0  0  0  0  0  0  0  0  0
    0.0245   -0.8276    1.1328 N   0  0  0  0  0  0  0  0  0  0  0  0
    0.0401   -3.3059   -1.5085 C   0  0  0  0  0  0  0  0  0  0  0  0
    0.0321   -3.1947   -2.7199 O   0  0  0  0  0  0  0  0  0  0  0  0
    0.0599   -4.5297   -0.9442 N   0  0  0  0  0  0  0  0  0  0  0  0
    0.0718   -5.7260   -1.7897 C   0  0  0  0  0  0  0  0  0  0  0  0
    0.0932   -6.9561   -0.9193 C   0  0  0  0  0  0  0  0  0  0  0  0
    1.3012   -7.5001   -0.5221 C   0  0  0  0  0  0  0  0  0  0  0  0
    1.3254   -8.6289    0.2761 C   0  0  0  0  0  0  0  0  0  0  0  0
    0.1425   -9.2167    0.6799 C   0  0  0  0  0  0  0  0  0  0  0  0
   -1.0723   -8.6726    0.2832 C   0  0  0  0  0  0  0  0  0  0  0  0
   -1.0931   -7.5353   -0.5146 C   0  0  0  0  0  0  0  0  0  0  0  0
   -2.2704   -9.2645    0.6896 N   0  0  0  0  0  2  0  0  0  0  0  0
   -2.2435  -10.6164    1.6456 S   0  0  0  0  0  0  0  0  0  0  0  0
   -1.6248  -11.6143    0.8452 O   0  0  0  0  0  0  0  0  0  0  0  0
   -1.6449  -10.1889    2.8614 O   0  0  0  0  0  0  0  0  0  0  0  0
   -3.9887  -11.0284    1.9195 C   0  0  0  0  0  0  0  0  0  0  0  0
   -0.0052   -0.3526   -2.4165 N   0  0  0  0  0  0  0  0  0  0  0  0
    0.7775   -0.8435   -3.4244 C   0  0  0  0  0  0  0  0  0  0  0  0
    0.4771   -0.1734   -4.5547 C   0  0  0  0  0  0  0  0  0  0  0  0
   -0.5264    0.7653   -4.2373 C   0  0  0  0  0  0  0  0  0  0  0  0
   -0.8070    0.6309   -2.9258 C   0  0  0  0  0  0  0  0  0  0  0  0
    1.0048    1.8381    0.0023 H   0  0  0  0  0  0  0  0  0  0  0  0
   -0.5450    1.8219   -0.8730 H   0  0  0  0  0  0  0  0  0  0  0  0
   -0.5280    1.8123    0.9069 H   0  0  0  0  0  0  0  0  0  0  0  0
    0.0495   -2.9353    1.4056 H   0  0  0  0  0  0  0  0  0  0  0  0
    0.0662   -4.6183    0.0217 H   0  0  0  0  0  0  0  0  0  0  0  0
   -0.8215   -5.7384   -2.4142 H   0  0  0  0  0  0  0  0  0  0  0  0
    0.9583   -5.7140   -2.4237 H   0  0  0  0  0  0  0  0  0  0  0  0
    2.2276   -7.0425   -0.8363 H   0  0  0  0  0  0  0  0  0  0  0  0
    2.2704   -9.0516    0.5839 H   0  0  0  0  0  0  0  0  0  0  0  0
    0.1621  -10.0985    1.3031 H   0  0  0  0  0  0  0  0  0  0  0  0
   -2.0360   -7.1074   -0.8215 H   0  0  0  0  0  0  0  0  0  0  0  0
   -4.4711  -11.2217    0.9614 H   0  0  0  0  0  0  0  0  0  0  0  0
   -4.0581  -11.9170    2.5470 H   0  0  0  0  0  0  0  0  0  0  0  0
   -4.4856  -10.1942    2.4148 H   0  0  0  0  0  0  0  0  0  0  0  0
    1.5098   -1.6317   -3.3311 H   0  0  0  0  0  0  0  0  0  0  0  0
    0.9235   -0.3271   -5.5260 H   0  0  0  0  0  0  0  0  0  0  0  0
   -0.9888    1.4615   -4.9212 H   0  0  0  0  0  0  0  0  0  0  0  0
   -1.5370    1.2029   -2.3724 H   0  0  0  0  0  0  0  0  0  0  0  0
  1  2  1  0  0  0  0
  1 27  1  0  0  0  0
  1 28  1  0  0  0  0
  1 29  1  0  0  0  0
  2  6  1  0  0  0  0
  2  3  1  0  0  0  0
  3  4  2  0  0  0  0
  3 22  1  0  0  0  0
  4  5  1  0  0  0  0
  4  7  1  0  0  0  0
  5  6  2  0  0  0  0
  5 30  1  0  0  0  0
  7  8  2  0  0  0  0
  7  9  1  0  0  0  0
  9 10  1  0  0  0  0
  9 31  1  0  0  0  0
 10 11  1  0  0  0  0
 10 32  1  0  0  0  0
 10 33  1  0  0  0  0
 11 16  2  0  0  0  0
 11 12  1  0  0  0  0
 12 13  2  0  0  0  0
 12 34  1  0  0  0  0
 13 14  1  0  0  0  0
 13 35  1  0  0  0  0
 14 15  2  0  0  0  0
 14 36  1  0  0  0  0
 15 16  1  0  0  0  0
 15 17  1  0  0  0  0
 16 37  1  0  0  0  0
 17 18  1  0  0  0  0
 18 19  2  0  0  0  0
 18 20  2  0  0  0  0
 18 21  1  0  0  0  0
 21 38  1  0  0  0  0
 21 39  1  0  0  0  0
 21 40  1  0  0  0  0
 22 26  1  0  0  0  0
 22 23  1  0  0  0  0
 23 24  2  0  0  0  0
 23 41  1  0  0  0  0
 24 25  1  0  0  0  0
 24 42  1  0  0  0  0
 25 26  2  0  0  0  0
 25 43  1  0  0  0  0
 26 44  1  0  0  0  0
M  END
$$$$
ZINC35004891
 OpenBabel01252620473D

 60 64  0  0  1  0  0  0  0  0999 V2000
   -0.0296   -4.1710   -0.6761 C   0  0  0  0  0  0  0  0  0  0  0  0
    0.8703   -4.6795   -1.8042 C   0  0  1  0  0  0  0  0  0  0  0  0
    0.3176   -5.3463   -2.4661 H   0  0  0  0  0  0  0  0  0  0  0  0
    1.4750   -3.4972   -2.5978 C   0  0  0  0  0  0  0  0  0  0  0  0
    2.7976   -3.2865   -1.8859 C   0  0  0  0  0  0  0  0  0  0  0  0
    3.6923   -2.2456   -1.8967 C   0  0  0  0  0  0  0  0  0  0  0  0
    4.8538   -2.3175   -1.1203 C   0  0  0  0  0  0  0  0  0  0  0  0
    5.0900   -3.4535   -0.3396 C   0  0  0  0  0  0  0  0  0  0  0  0
    4.1892   -4.4914   -0.3391 C   0  0  0  0  0  0  0  0  0  0  0  0
    3.0309   -4.4231   -1.1161 C   0  0  0  0  0  0  0  0  0  0  0  0
    2.0314   -5.3385   -1.2715 O   0  0  0  0  0  0  0  0  0  0  0  0
    5.8219   -1.2032   -1.1246 C   0  0  0  0  0  0  0  0  0  0  0  0
    6.9974   -1.2499   -0.2492 C   0  0  0  0  0  0  0  0  0  0  0  0
    6.9978   -1.2185    1.2613 C   0  0  1  0  0  0  0  0  0  0  0  0
    6.4505   -2.0754    1.6541 H   0  0  0  0  0  0  0  0  0  0  0  0
    8.4053   -1.2876    1.6716 N   0  0  0  0  0  0  0  0  0  0  0  0
    9.1579   -1.3522    0.5582 C   0  0  0  0  0  0  0  0  0  0  0  0
   10.3708   -1.4198    0.5395 O   0  0  0  0  0  0  0  0  0  0  0  0
    8.2907   -1.3352   -0.6385 C   0  0  0  0  0  0  0  0  0  0  0  0
    8.7215   -1.3929   -1.9197 O   0  5  0  0  0  0  0  0  0  0  0  0
    8.9027   -1.2864    3.0496 C   0  0  0  0  0  0  0  0  0  0  0  0
    8.9965   -2.7260    3.5592 C   0  0  0  0  0  0  0  0  0  0  0  0
    9.5159   -2.7248    4.9983 C   0  0  0  0  0  0  0  0  0  0  0  0
    9.6060   -4.1070    5.4876 N   0  0  0  0  0  0  0  0  0  0  0  0
    8.2714   -4.7123    5.6050 C   0  0  0  0  0  0  0  0  0  0  0  0
    8.4151   -6.1672    6.0594 C   0  0  0  0  0  0  0  0  0  0  0  0
    9.1380   -6.2070    7.2927 O   0  0  0  0  0  0  0  0  0  0  0  0
   10.4426   -5.6263    7.2143 C   0  0  0  0  0  0  0  0  0  0  0  0
   10.3195   -4.1659    6.7716 C   0  0  0  0  0  0  0  0  0  0  0  0
    6.3771    0.0635    1.7532 C   0  0  0  0  0  0  0  0  0  0  0  0
    5.1524    0.1871    2.2957 C   0  0  0  0  0  0  0  0  0  0  0  0
    4.9805    1.5543    2.6119 C   0  0  0  0  0  0  0  0  0  0  0  0
    6.1104    2.1845    2.2437 C   0  0  0  0  0  0  0  0  0  0  0  0
    6.9550    1.2756    1.7296 O   0  0  0  0  0  0  0  0  0  0  0  0
    5.6445   -0.2458   -1.8546 O   0  0  0  0  0  0  0  0  0  0  0  0
    0.5448   -3.5171   -0.0199 H   0  0  0  0  0  0  0  0  0  0  0  0
   -0.8660   -3.6159   -1.1007 H   0  0  0  0  0  0  0  0  0  0  0  0
   -0.4086   -5.0179   -0.1040 H   0  0  0  0  0  0  0  0  0  0  0  0
    1.6332   -3.7689   -3.6415 H   0  0  0  0  0  0  0  0  0  0  0  0
    0.8444   -2.6117   -2.5185 H   0  0  0  0  0  0  0  0  0  0  0  0
    3.4998   -1.3729   -2.5030 H   0  0  0  0  0  0  0  0  0  0  0  0
    5.9832   -3.5156    0.2643 H   0  0  0  0  0  0  0  0  0  0  0  0
    4.3783   -5.3656    0.2662 H   0  0  0  0  0  0  0  0  0  0  0  0
    9.8900   -0.8255    3.0791 H   0  0  0  0  0  0  0  0  0  0  0  0
    8.2186   -0.7209    3.6823 H   0  0  0  0  0  0  0  0  0  0  0  0
    8.0092   -3.1869    3.5297 H   0  0  0  0  0  0  0  0  0  0  0  0
    9.6805   -3.2916    2.9265 H   0  0  0  0  0  0  0  0  0  0  0  0
   10.5033   -2.2638    5.0278 H   0  0  0  0  0  0  0  0  0  0  0  0
    8.8319   -2.1592    5.6310 H   0  0  0  0  0  0  0  0  0  0  0  0
    7.6838   -4.1586    6.3373 H   0  0  0  0  0  0  0  0  0  0  0  0
    7.7711   -4.6810    4.6371 H   0  0  0  0  0  0  0  0  0  0  0  0
    7.4263   -6.6030    6.2029 H   0  0  0  0  0  0  0  0  0  0  0  0
    8.9566   -6.7334    5.3016 H   0  0  0  0  0  0  0  0  0  0  0  0
   10.9203   -5.6709    8.1930 H   0  0  0  0  0  0  0  0  0  0  0  0
   11.0431   -6.1768    6.4901 H   0  0  0  0  0  0  0  0  0  0  0  0
   11.3143   -3.7357    6.6553 H   0  0  0  0  0  0  0  0  0  0  0  0
    9.7646   -3.6035    7.5225 H   0  0  0  0  0  0  0  0  0  0  0  0
    4.4374   -0.6059    2.4580 H   0  0  0  0  0  0  0  0  0  0  0  0
    4.1090    2.0061    3.0623 H   0  0  0  0  0  0  0  0  0  0  0  0
    6.3067    3.2414    2.3477 H   0  0  0  0  0  0  0  0  0  0  0  0
  1  2  1  0  0  0  0
  1 36  1  0  0  0  0
  1 37  1  0  0  0  0
  1 38  1  0  0  0  0
  2  3  1  6  0  0  0
  2 11  1  0  0  0  0
  2  4  1  0  0  0  0
  4  5  1  0  0  0  0
  4 39  1  0  0  0  0
  4 40  1  0  0  0  0
  5 10  2  0  0  0  0
  5  6  1  0  0  0  0
  6  7  2  0  0  0  0
  6 41  1  0  0  0  0
  7  8  1  0  0  0  0
  7 12  1  0  0  0  0
  8  9  2  0  0  0  0
  8 42  1  0  0  0  0
  9 10  1  0  0  0  0
  9 43  1  0  0  0  0
 10 11  1  0  0  0  0
 12 13  1  0  0  0  0
 12 35  2  0  0  0  0
 13 19  2  0  0  0  0
 13 14  1  0  0  0  0
 14 16  1  0  0  0  0
 14 30  1  0  0  0  0
 14 15  1  1  0  0  0
 16 21  1  0  0  0  0
 16 17  1  0  0  0  0
 17 18  2  0  0  0  0
 17 19  1  0  0  0  0
 19 20  1  0  0  0  0
 21 22  1  0  0  0  0
 21 44  1  0  0  0  0
 21 45  1  0  0  0  0
 22 23  1  0  0  0  0
 22 46  1  0  0  0  0
 22 47  1  0  0  0  0
 23 24  1  0  0  0  0
 23 48  1  0  0  0  0
 23 49  1  0  0  0  0
 24 29  1  0  0  0  0
 24 25  1  0  0  0  0
 25 26  1  0  0  0  0
 25 50  1  0  0  0  0
 25 51  1  0  0  0  0
 26 27  1  0  0  0  0
 26 52  1  0  0  0  0
 26 53  1  0  0  0  0
 27 28  1  0  0  0  0
 28 29  1  0  0  0  0
 28 54  1  0  0  0  0
 28 55  1  0  0  0  0
 29 56  1  0  0  0  0
 29 57  1  0  0  0  0
 30 34  1  0  0  0  0
 30 31  2  0  0  0  0
 31 32  1  0  0  0  0
 31 58  1  0  0  0  0
 32 33  2  0  0  0  0
 32 59  1  0  0  0  0
 33 34  1  0  0  0  0
 33 60  1  0  0  0  0
M  CHG  1  20  -1
M  END
$$$$
ZINC40819516
 OpenBabel01252620473D

 36 38  0  0  0  0  0  0  0  0999 V2000
   -0.0166    1.3734    0.0096 C   0  0  0  0  0  0  0  0  0  0  0  0
    1.1694    2.0960    0.0021 C   0  0  0  0  0  0  0  0  0  0  0  0
    2.3868    1.4533   -0.0134 C   0  0  0  0  0  0  0  0  0  0  0  0
    2.4319    0.0576   -0.0213 C   0  0  0  0  0  0  0  0  0  0  0  0
    1.2238   -0.6740   -0.0133 C   0  0  0  0  0  0  0  0  0  0  0  0
    0.0021   -0.0041    0.0020 C   0  0  0  0  0  0  0  0  0  0  0  0
    1.3057   -2.1421   -0.0225 C   0  0  0  0  0  0  0  0  0  0  0  0
    0.3025   -2.8315   -0.0167 O   0  0  0  0  0  0  0  0  0  0  0  0
    2.5401   -2.6970   -0.0382 N   0  0  0  0  0  0  0  0  0  0  0  0
    2.6329   -3.6626   -0.0446 H   0  0  0  0  0  0  0  0  0  0  0  0
    3.6503   -1.9141   -0.0454 C   0  0  0  0  0  0  0  0  0  0  0  0
    3.6091   -0.6164   -0.0371 N   0  0  0  0  0  0  0  0  0  0  0  0
    4.9990   -2.5863   -0.0634 C   0  0  0  0  0  0  0  0  0  0  0  0
    6.0989   -1.5227   -0.0689 C   0  0  0  0  0  0  0  0  0  0  0  0
    7.4099   -2.1762   -0.0864 N   0  0  0  0  0  0  0  0  0  0  0  0
    8.5337   -1.4322   -0.0939 C   0  0  0  0  0  0  0  0  0  0  0  0
    8.4594   -0.2190   -0.0863 O   0  0  0  0  0  0  0  0  0  0  0  0
    9.8568   -2.0916   -0.1116 C   0  0  0  0  0  0  0  0  0  0  0  0
   11.0316   -1.3301   -0.1138 C   0  0  0  0  0  0  0  0  0  0  0  0
   12.2451   -1.9963   -0.1306 C   0  0  0  0  0  0  0  0  0  0  0  0
   12.2575   -3.3806   -0.1446 C   0  0  0  0  0  0  0  0  0  0  0  0
   11.1337   -4.0714   -0.1421 N   0  0  0  0  0  0  0  0  0  0  0  0
    9.9555   -3.4833   -0.1205 C   0  0  0  0  0  0  0  0  0  0  0  0
   13.8682   -1.0259   -0.1351 Br  0  0  0  0  0  0  0  0  0  0  0  0
   -0.9617    1.8959    0.0260 H   0  0  0  0  0  0  0  0  0  0  0  0
    1.1363    3.1755    0.0083 H   0  0  0  0  0  0  0  0  0  0  0  0
    3.3025    2.0258   -0.0198 H   0  0  0  0  0  0  0  0  0  0  0  0
   -0.9234   -0.5607    0.0082 H   0  0  0  0  0  0  0  0  0  0  0  0
    5.1043   -3.2133    0.8220 H   0  0  0  0  0  0  0  0  0  0  0  0
    5.0856   -3.2032   -0.9578 H   0  0  0  0  0  0  0  0  0  0  0  0
    5.9936   -0.8958   -0.9543 H   0  0  0  0  0  0  0  0  0  0  0  0
    6.0123   -0.9059    0.8256 H   0  0  0  0  0  0  0  0  0  0  0  0
    7.4692   -3.1444   -0.0925 H   0  0  0  0  0  0  0  0  0  0  0  0
   10.9923   -0.2508   -0.1030 H   0  0  0  0  0  0  0  0  0  0  0  0
   13.2024   -3.9034   -0.1581 H   0  0  0  0  0  0  0  0  0  0  0  0
    9.0577   -4.0836   -0.1141 H   0  0  0  0  0  0  0  0  0  0  0  0
  1  6  2  0  0  0  0
  1  2  1  0  0  0  0
  1 25  1  0  0  0  0
  2  3  2  0  0  0  0
  2 26  1  0  0  0  0
  3  4  1  0  0  0  0
  3 27  1  0  0  0  0
  4 12  1  0  0  0  0
  4  5  2  0  0  0  0
  5  6  1  0  0  0  0
  5  7  1  0  0  0  0
  6 28  1  0  0  0  0
  7  8  2  0  0  0  0
  7  9  1  0  0  0  0
  9 10  1  0  0  0  0
  9 11  1  0  0  0  0
 11 12  2  0  0  0  0
 11 13  1  0  0  0  0
 13 14  1  0  0  0  0
 13 29  1  0  0  0  0
 13 30  1  0  0  0  0
 14 15  1  0  0  0  0
 14 31  1  0  0  0  0
 14 32  1  0  0  0  0
 15 16  1  0  0  0  0
 15 33  1  0  0  0  0
 16 17  2  0  0  0  0
 16 18  1  0  0  0  0
 18 23  2  0  0  0  0
 18 19  1  0  0  0  0
 19 20  2  0  0  0  0
 19 34  1  0  0  0  0
 20 21  1  0  0  0  0
 20 24  1  0  0  0  0
 21 22  2  0  0  0  0
 21 35  1  0  0  0  0
 22 23  1  0  0  0  0
 23 36  1  0  0  0  0
M  END
$$$$
ZINC12566757
 OpenBabel01252620473D

 52 54  0  0  1  0  0  0  0  0999 V2000
   -0.0187    1.5258    0.0104 C   0  0  0  0  0  0  0  0  0  0  0  0
    0.0021   -0.0041    0.0020 C   0  0  0  0  0  0  0  0  0  0  0  0
    0.7182   -0.4975   -1.2568 C   0  0  0  0  0  0  0  0  0  0  0  0
    0.7386   -2.0043   -1.2651 C   0  0  0  0  0  0  0  0  0  0  0  0
   -0.2243   -2.6950   -1.9428 C   0  0  0  0  0  0  0  0  0  0  0  0
   -0.1845   -4.1003   -1.9368 C   0  0  0  0  0  0  0  0  0  0  0  0
   -1.0291   -4.7487   -2.5324 O   0  0  0  0  0  0  0  0  0  0  0  0
    0.8065   -4.7187   -1.2596 N   0  0  0  0  0  0  0  0  0  0  0  0
    0.8534   -5.6874   -1.2423 H   0  0  0  0  0  0  0  0  0  0  0  0
    1.7402   -3.9774   -0.6013 C   0  0  0  0  0  0  0  0  0  0  0  0
    1.6983   -2.6589   -0.6164 N   0  0  0  0  0  0  0  0  0  0  0  0
    3.0295   -4.7929    0.2803 S   0  0  0  0  0  0  0  0  0  0  0  0
    4.0094   -3.4360    0.9797 C   0  0  1  0  0  0  0  0  0  0  0  0
    4.3200   -2.7628    0.1807 H   0  0  0  0  0  0  0  0  0  0  0  0
    3.1625   -2.6660    1.9950 C   0  0  0  0  0  0  0  0  0  0  0  0
    3.9889   -1.5215    2.5849 C   0  0  0  0  0  0  0  0  0  0  0  0
    5.2262   -2.0920    3.2811 C   0  0  0  0  0  0  0  0  0  0  0  0
    6.0731   -2.8620    2.2658 C   0  0  0  0  0  0  0  0  0  0  0  0
    5.2466   -4.0065    1.6759 C   0  0  2  0  0  0  0  0  0  0  0  0
    4.9360   -4.6797    2.4748 H   0  0  0  0  0  0  0  0  0  0  0  0
    6.0575   -4.7437    0.7037 N   0  0  0  0  0  0  0  0  0  0  0  0
    6.8779   -6.1039    1.1719 S   0  0  0  0  0  0  0  0  0  0  0  0
    7.5384   -6.5982    0.0149 O   0  0  0  0  0  0  0  0  0  0  0  0
    7.5767   -5.7672    2.3625 O   0  0  0  0  0  0  0  0  0  0  0  0
    5.6741   -7.3105    1.6186 C   0  0  0  0  0  0  0  0  0  0  0  0
    5.2161   -7.3807    2.9210 C   0  0  0  0  0  0  0  0  0  0  0  0
    4.2716   -8.3273    3.2715 C   0  0  0  0  0  0  0  0  0  0  0  0
    3.7849   -9.2034    2.3195 C   0  0  0  0  0  0  0  0  0  0  0  0
    4.2422   -9.1327    1.0169 C   0  0  0  0  0  0  0  0  0  0  0  0
    5.1835   -8.1833    0.6655 C   0  0  0  0  0  0  0  0  0  0  0  0
    1.0039    1.9031    0.0027 H   0  0  0  0  0  0  0  0  0  0  0  0
   -0.5459    1.8868   -0.8726 H   0  0  0  0  0  0  0  0  0  0  0  0
   -0.5289    1.8773    0.9072 H   0  0  0  0  0  0  0  0  0  0  0  0
    0.5293   -0.3651    0.8851 H   0  0  0  0  0  0  0  0  0  0  0  0
   -1.0205   -0.3814    0.0098 H   0  0  0  0  0  0  0  0  0  0  0  0
    0.1910   -0.1364   -2.1398 H   0  0  0  0  0  0  0  0  0  0  0  0
    1.7408   -0.1202   -1.2645 H   0  0  0  0  0  0  0  0  0  0  0  0
   -1.0042   -2.1704   -2.4747 H   0  0  0  0  0  0  0  0  0  0  0  0
    2.2810   -2.2596    1.4990 H   0  0  0  0  0  0  0  0  0  0  0  0
    2.8518   -3.3392    2.7940 H   0  0  0  0  0  0  0  0  0  0  0  0
    4.2996   -0.8483    1.7859 H   0  0  0  0  0  0  0  0  0  0  0  0
    3.3856   -0.9729    3.3082 H   0  0  0  0  0  0  0  0  0  0  0  0
    5.8149   -1.2766    3.7014 H   0  0  0  0  0  0  0  0  0  0  0  0
    4.9155   -2.7652    4.0801 H   0  0  0  0  0  0  0  0  0  0  0  0
    6.3837   -2.1887    1.4668 H   0  0  0  0  0  0  0  0  0  0  0  0
    6.9545   -3.2684    2.7618 H   0  0  0  0  0  0  0  0  0  0  0  0
    6.1139   -4.4352   -0.2141 H   0  0  0  0  0  0  0  0  0  0  0  0
    5.5964   -6.6962    3.6648 H   0  0  0  0  0  0  0  0  0  0  0  0
    3.9143   -8.3826    4.2892 H   0  0  0  0  0  0  0  0  0  0  0  0
    3.0475   -9.9435    2.5935 H   0  0  0  0  0  0  0  0  0  0  0  0
    3.8621   -9.8174    0.2732 H   0  0  0  0  0  0  0  0  0  0  0  0
    5.5380   -8.1256   -0.3530 H   0  0  0  0  0  0  0  0  0  0  0  0
  1  2  1  0  0  0  0
  1 31  1  0  0  0  0
  1 32  1  0  0  0  0
  1 33  1  0  0  0  0
  2  3  1  0  0  0  0
  2 34  1  0  0  0  0
  2 35  1  0  0  0  0
  3  4  1  0  0  0  0
  3 36  1  0  0  0  0
  3 37  1  0  0  0  0
  4 11  1  0  0  0  0
  4  5  2  0  0  0  0
  5  6  1  0  0  0  0
  5 38  1  0  0  0  0
  6  7  2  0  0  0  0
  6  8  1  0  0  0  0
  8  9  1  0  0  0  0
  8 10  1  0  0  0  0
 10 11  2  0  0  0  0
 10 12  1  0  0  0  0
 12 13  1  0  0  0  0
 13 14  1  6  0  0  0
 13 19  1  0  0  0  0
 13 15  1  0  0  0  0
 15 16  1  0  0  0  0
 15 39  1  0  0  0  0
 15 40  1  0  0  0  0
 16 17  1  0  0  0  0
 16 41  1  0  0  0  0
 16 42  1  0  0  0  0
 17 18  1  0  0  0  0
 17 43  1  0  0  0  0
 17 44  1  0  0  0  0
 18 19  1  0  0  0  0
 18 45  1  0  0  0  0
 18 46  1  0  0  0  0
 19 20  1  1  0  0  0
 19 21  1  0  0  0  0
 21 22  1  0  0  0  0
 21 47  1  0  0  0  0
 22 23  2  0  0  0  0
 22 24  2  0  0  0  0
 22 25  1  0  0  0  0
 25 30  2  0  0  0  0
 25 26  1  0  0  0  0
 26 27  2  0  0  0  0
 26 48  1  0  0  0  0
 27 28  1  0  0  0  0
 27 49  1  0  0  0  0
 28 29  2  0  0  0  0
 28 50  1  0  0  0  0
 29 30  1  0  0  0  0
 29 51  1  0  0  0  0
 30 52  1  0  0  0  0
M  END
$$$$
ZINC44378641
 OpenBabel01252620473D

 24 25  0  0  0  0  0  0  0  0999 V2000
   -0.0167    1.3818    0.0096 C   0  0  0  0  0  0  0  0  0  0  0  0
    1.1719    2.0971    0.0021 C   0  0  0  0  0  0  0  0  0  0  0  0
    2.3924    1.4404   -0.0135 C   0  0  0  0  0  0  0  0  0  0  0  0
    2.4343    0.0582   -0.0212 C   0  0  0  0  0  0  0  0  0  0  0  0
    1.2406   -0.6703   -0.0133 C   0  0  0  0  0  0  0  0  0  0  0  0
    0.0021   -0.0041    0.0020 C   0  0  0  0  0  0  0  0  0  0  0  0
   -1.0306   -0.9391    0.0068 N   0  0  0  0  0  0  0  0  0  0  0  0
   -0.5536   -2.1958   -0.0045 C   0  0  0  0  0  0  0  0  0  0  0  0
   -1.2141   -3.2134   -0.0040 O   0  0  0  0  0  0  0  0  0  0  0  0
    0.9435   -2.1112   -0.0180 C   0  0  0  0  0  0  0  0  0  0  0  0
    1.7366   -3.0302   -0.0311 O   0  0  0  0  0  0  0  0  0  0  0  0
   -2.4549   -0.5965    0.0226 C   0  0  0  0  0  0  0  0  0  0  0  0
   -2.9648   -0.4691   -1.4142 C   0  0  0  0  0  0  0  0  0  0  0  0
   -4.4299   -0.1166   -1.3980 C   0  0  0  0  0  0  0  0  0  0  0  0
   -5.0123    0.0200   -0.3356 O   0  0  0  0  0  0  0  0  0  0  0  0
   -5.0329    0.0319   -2.4472 O   0  0  0  0  0  1  0  0  0  0  0  0
    3.6222   -0.5851   -0.0369 F   0  0  0  0  0  0  0  0  0  0  0  0
    1.1395    3.4477    0.0096 F   0  0  0  0  0  0  0  0  0  0  0  0
   -0.9604    1.9068    0.0260 H   0  0  0  0  0  0  0  0  0  0  0  0
    3.3110    2.0083   -0.0199 H   0  0  0  0  0  0  0  0  0  0  0  0
   -3.0113   -1.3797    0.5375 H   0  0  0  0  0  0  0  0  0  0  0  0
   -2.5949    0.3509    0.5432 H   0  0  0  0  0  0  0  0  0  0  0  0
   -2.4084    0.3141   -1.9291 H   0  0  0  0  0  0  0  0  0  0  0  0
   -2.8248   -1.4164   -1.9348 H   0  0  0  0  0  0  0  0  0  0  0  0
  1  6  2  0  0  0  0
  1  2  1  0  0  0  0
  1 19  1  0  0  0  0
  2  3  2  0  0  0  0
  2 18  1  0  0  0  0
  3  4  1  0  0  0  0
  3 20  1  0  0  0  0
  4  5  2  0  0  0  0
  4 17  1  0  0  0  0
  5 10  1  0  0  0  0
  5  6  1  0  0  0  0
  6  7  1  0  0  0  0
  7  8  1  0  0  0  0
  7 12  1  0  0  0  0
  8  9  2  0  0  0  0
  8 10  1  0  0  0  0
 10 11  2  0  0  0  0
 12 13  1  0  0  0  0
 12 21  1  0  0  0  0
 12 22  1  0  0  0  0
 13 14  1  0  0  0  0
 13 23  1  0  0  0  0
 13 24  1  0  0  0  0
 14 15  2  0  0  0  0
 14 16  1  0  0  0  0
M  END
$$$$
ZINC24192911
 OpenBabel01252620473D

 64 68  0  0  1  0  0  0  0  0999 V2000
    3.4075    5.6730    0.9274 C   0  0  0  0  0  0  0  0  0  0  0  0
    2.3253    5.1131    1.4085 C   0  0  0  0  0  0  0  0  0  0  0  0
    0.9898    5.7923    1.2465 C   0  0  0  0  0  0  0  0  0  0  0  0
    0.0483    4.8716    0.6045 N   0  0  0  0  0  0  0  0  0  0  0  0
   -0.0588    4.7055   -0.7776 C   0  0  0  0  0  0  0  0  0  0  0  0
    0.6339    5.3110   -1.8238 C   0  0  0  0  0  0  0  0  0  0  0  0
    0.3464    4.9773   -3.1308 C   0  0  0  0  0  0  0  0  0  0  0  0
   -0.6311    4.0406   -3.4138 C   0  0  0  0  0  0  0  0  0  0  0  0
   -1.3237    3.4346   -2.3805 C   0  0  0  0  0  0  0  0  0  0  0  0
   -1.0388    3.7643   -1.0743 C   0  0  0  0  0  0  0  0  0  0  0  0
   -1.5885    3.3052    0.2497 C   0  0  2  0  0  0  0  0  0  0  0  0
   -0.8137    4.0883    1.2788 C   0  0  0  0  0  0  0  0  0  0  0  0
   -0.9423    4.0244    2.4832 O   0  0  0  0  0  0  0  0  0  0  0  0
   -1.3970    1.8247    0.4370 C   0  0  0  0  0  0  0  0  0  0  0  0
   -2.6313    1.3000    0.6352 C   0  0  0  0  0  0  0  0  0  0  0  0
   -3.6343    2.3857    0.5794 C   0  0  0  0  0  0  0  0  0  0  0  0
   -4.8318    2.2371    0.7208 O   0  0  0  0  0  0  0  0  0  0  0  0
   -3.0226    3.5644    0.3493 N   0  0  0  0  0  0  0  0  0  0  0  0
   -3.6767    4.8696    0.2270 C   0  0  0  0  0  0  0  0  0  0  0  0
   -3.7625    5.5282    1.6054 C   0  0  0  0  0  0  0  0  0  0  0  0
   -4.4456    6.8913    1.4776 C   0  0  0  0  0  0  0  0  0  0  0  0
   -4.5279    7.5236    2.8010 N   0  0  0  0  0  0  0  0  0  0  0  0
   -5.4260    6.7716    3.6893 C   0  0  0  0  0  0  0  0  0  0  0  0
   -5.4360    7.4293    5.0718 C   0  0  0  0  0  0  0  0  0  0  0  0
   -5.8269    8.7987    4.9398 O   0  0  0  0  0  0  0  0  0  0  0  0
   -4.9735    9.5609    4.0820 C   0  0  0  0  0  0  0  0  0  0  0  0
   -4.9588    8.9248    2.6895 C   0  0  0  0  0  0  0  0  0  0  0  0
   -2.9023   -0.0079    0.8499 O   0  5  0  0  0  0  0  0  0  0  0  0
   -0.1260    1.0945    0.4156 C   0  0  0  0  0  0  0  0  0  0  0  0
    0.4417    0.8921   -0.6414 O   0  0  0  0  0  0  0  0  0  0  0  0
    0.4689    0.6094    1.6786 C   0  0  0  0  0  0  0  0  0  0  0  0
   -0.1217    0.9342    2.9022 C   0  0  0  0  0  0  0  0  0  0  0  0
    0.4352    0.4747    4.0767 C   0  0  0  0  0  0  0  0  0  0  0  0
    1.5840   -0.2993    4.0456 C   0  0  0  0  0  0  0  0  0  0  0  0
    2.1774   -0.6204    2.8356 C   0  0  0  0  0  0  0  0  0  0  0  0
    1.6273   -0.1710    1.6540 C   0  0  0  0  0  0  0  0  0  0  0  0
    2.2830   -0.8686    5.5292 Cl  0  0  0  0  0  0  0  0  0  0  0  0
    4.3823    5.1773    1.0456 H   0  0  0  0  0  0  0  0  0  0  0  0
    3.3414    6.6389    0.4052 H   0  0  0  0  0  0  0  0  0  0  0  0
    2.3914    4.1472    1.9307 H   0  0  0  0  0  0  0  0  0  0  0  0
    0.6034    6.0817    2.2349 H   0  0  0  0  0  0  0  0  0  0  0  0
    1.1083    6.6900    0.6219 H   0  0  0  0  0  0  0  0  0  0  0  0
    1.3984    6.0435   -1.6107 H   0  0  0  0  0  0  0  0  0  0  0  0
    0.8871    5.4500   -3.9374 H   0  0  0  0  0  0  0  0  0  0  0  0
   -0.8530    3.7826   -4.4388 H   0  0  0  0  0  0  0  0  0  0  0  0
   -2.0877    2.7031   -2.5985 H   0  0  0  0  0  0  0  0  0  0  0  0
   -3.0926    5.5104   -0.4499 H   0  0  0  0  0  0  0  0  0  0  0  0
   -4.6902    4.7352   -0.1789 H   0  0  0  0  0  0  0  0  0  0  0  0
   -4.3466    4.8873    2.2822 H   0  0  0  0  0  0  0  0  0  0  0  0
   -2.7490    5.6625    2.0113 H   0  0  0  0  0  0  0  0  0  0  0  0
   -3.8615    7.5321    0.8007 H   0  0  0  0  0  0  0  0  0  0  0  0
   -5.4591    6.7569    1.0717 H   0  0  0  0  0  0  0  0  0  0  0  0
   -6.4435    6.7765    3.2715 H   0  0  0  0  0  0  0  0  0  0  0  0
   -5.0707    5.7343    3.7772 H   0  0  0  0  0  0  0  0  0  0  0  0
   -6.1497    6.9033    5.7229 H   0  0  0  0  0  0  0  0  0  0  0  0
   -4.4292    7.3741    5.5114 H   0  0  0  0  0  0  0  0  0  0  0  0
   -5.3502   10.5920    4.0122 H   0  0  0  0  0  0  0  0  0  0  0  0
   -3.9535    9.5702    4.4937 H   0  0  0  0  0  0  0  0  0  0  0  0
   -4.2594    9.4730    2.0412 H   0  0  0  0  0  0  0  0  0  0  0  0
   -5.9688    8.9644    2.2555 H   0  0  0  0  0  0  0  0  0  0  0  0
   -1.0148    1.5410    2.9279 H   0  0  0  0  0  0  0  0  0  0  0  0
   -0.0223    0.7223    5.0231 H   0  0  0  0  0  0  0  0  0  0  0  0
    3.0729   -1.2238    2.8179 H   0  0  0  0  0  0  0  0  0  0  0  0
    2.0912   -0.4213    0.7114 H   0  0  0  0  0  0  0  0  0  0  0  0
  1  2  2  0  0  0  0
  1 38  1  0  0  0  0
  1 39  1  0  0  0  0
  2  3  1  0  0  0  0
  2 40  1  0  0  0  0
  3  4  1  0  0  0  0
  3 41  1  0  0  0  0
  3 42  1  0  0  0  0
  4 12  1  0  0  0  0
  4  5  1  0  0  0  0
  5 10  2  0  0  0  0
  5  6  1  0  0  0  0
  6  7  2  0  0  0  0
  6 43  1  0  0  0  0
  7  8  1  0  0  0  0
  7 44  1  0  0  0  0
  8  9  2  0  0  0  0
  8 45  1  0  0  0  0
  9 10  1  0  0  0  0
  9 46  1  0  0  0  0
 11 10  1  6  0  0  0
 11 18  1  0  0  0  0
 11 12  1  0  0  0  0
 11 14  1  0  0  0  0
 12 13  2  0  0  0  0
 14 15  2  0  0  0  0
 14 29  1  0  0  0  0
 15 16  1  0  0  0  0
 15 28  1  0  0  0  0
 16 17  2  0  0  0  0
 16 18  1  0  0  0  0
 18 19  1  0  0  0  0
 19 20  1  0  0  0  0
 19 47  1  0  0  0  0
 19 48  1  0  0  0  0
 20 21  1  0  0  0  0
 20 49  1  0  0  0  0
 20 50  1  0  0  0  0
 21 22  1  0  0  0  0
 21 51  1  0  0  0  0
 21 52  1  0  0  0  0
 22 27  1  0  0  0  0
 22 23  1  0  0  0  0
 23 24  1  0  0  0  0
 23 53  1  0  0  0  0
 23 54  1  0  0  0  0
 24 25  1  0  0  0  0
 24 55  1  0  0  0  0
 24 56  1  0  0  0  0
 25 26  1  0  0  0  0
 26 27  1  0  0  0  0
 26 57  1  0  0  0  0
 26 58  1  0  0  0  0
 27 59  1  0  0  0  0
 27 60  1  0  0  0  0
 29 30  2  0  0  0  0
 29 31  1  0  0  0  0
 31 36  2  0  0  0  0
 31 32  1  0  0  0  0
 32 33  2  0  0  0  0
 32 61  1  0  0  0  0
 33 34  1  0  0  0  0
 33 62  1  0  0  0  0
 34 35  2  0  0  0  0
 34 37  1  0  0  0  0
 35 36  1  0  0  0  0
 35 63  1  0  0  0  0
 36 64  1  0  0  0  0
M  CHG  1  28  -1
M  END
$$$$
ZINC28249090
 OpenBabel01252620473D

 26 27  0  0  0  0  0  0  0  0999 V2000
   -7.0593    1.8832    4.3857 C   0  0  0  0  0  0  0  0  0  0  0  0
   -6.9656    2.8034    3.1959 C   0  0  0  0  0  0  0  0  0  0  0  0
   -6.4258    2.4508    1.8850 C   0  0  0  0  0  0  0  0  0  0  0  0
   -6.5031    3.5007    1.1123 N   0  0  0  0  0  0  0  0  0  0  0  0
   -7.0887    4.5479    1.8662 O   0  0  0  0  0  0  0  0  0  0  0  0
   -7.3506    4.0430    3.1637 N   0  0  0  0  0  0  0  0  0  0  0  0
   -5.9115    1.2102    1.5233 N   0  0  0  0  0  2  0  0  0  0  0  0
   -5.2117    1.0054    0.0365 S   0  0  0  0  0  0  0  0  0  0  0  0
   -6.1192    1.5411   -0.9168 O   0  0  0  0  0  0  0  0  0  0  0  0
   -4.7571   -0.3399   -0.0166 O   0  0  0  0  0  0  0  0  0  0  0  0
   -3.7750    2.0245   -0.0079 C   0  0  0  0  0  0  0  0  0  0  0  0
   -3.7026    3.0733   -0.9003 C   0  0  0  0  0  0  0  0  0  0  0  0
   -2.5635    3.8803   -0.9339 C   0  0  0  0  0  0  0  0  0  0  0  0
   -1.5015    3.6161   -0.0657 C   0  0  0  0  0  0  0  0  0  0  0  0
   -1.5881    2.5679    0.8255 C   0  0  0  0  0  0  0  0  0  0  0  0
   -2.7209    1.7709    0.8540 C   0  0  0  0  0  0  0  0  0  0  0  0
   -2.8198    0.4491    1.9750 Cl  0  0  0  0  0  0  0  0  0  0  0  0
   -2.4793    5.0047   -1.8875 C   0  0  0  0  0  0  0  0  0  0  0  0
   -3.4022    5.2291   -2.6448 O   0  0  0  0  0  0  0  0  0  0  0  0
   -1.3814    5.7849   -1.9137 O   0  0  0  0  0  1  0  0  0  0  0  0
   -6.6568    0.8952    4.1177 H   0  0  0  0  0  0  0  0  0  0  0  0
   -8.1120    1.7807    4.6879 H   0  0  0  0  0  0  0  0  0  0  0  0
   -6.4775    2.3021    5.2199 H   0  0  0  0  0  0  0  0  0  0  0  0
   -4.5254    3.2703   -1.5717 H   0  0  0  0  0  0  0  0  0  0  0  0
   -0.6161    4.2340   -0.0901 H   0  0  0  0  0  0  0  0  0  0  0  0
   -0.7694    2.3652    1.5001 H   0  0  0  0  0  0  0  0  0  0  0  0
  1  2  1  0  0  0  0
  1 21  1  0  0  0  0
  1 22  1  0  0  0  0
  1 23  1  0  0  0  0
  2  6  2  0  0  0  0
  2  3  1  0  0  0  0
  3  4  2  0  0  0  0
  3  7  1  0  0  0  0
  4  5  1  0  0  0  0
  5  6  1  0  0  0  0
  7  8  1  0  0  0  0
  8  9  2  0  0  0  0
  8 10  2  0  0  0  0
  8 11  1  0  0  0  0
 11 16  2  0  0  0  0
 11 12  1  0  0  0  0
 12 13  2  0  0  0  0
 12 24  1  0  0  0  0
 13 14  1  0  0  0  0
 13 18  1  0  0  0  0
 14 15  2  0  0  0  0
 14 25  1  0  0  0  0
 15 16  1  0  0  0  0
 15 26  1  0  0  0  0
 16 17  1  0  0  0  0
 18 19  2  0  0  0  0
 18 20  1  0  0  0  0
M  END
$$$$
ZINC47343250
 OpenBabel01252620473D

 34 36  0  0  0  0  0  0  0  0999 V2000
   -0.0167    1.3798    0.0096 C   0  0  0  0  0  0  0  0  0  0  0  0
    1.1937    2.0588    0.0017 C   0  0  0  0  0  0  0  0  0  0  0  0
    2.3744    1.3397   -0.0134 C   0  0  0  0  0  0  0  0  0  0  0  0
    2.3640    0.0221   -0.0204 N   0  0  0  0  0  0  0  0  0  0  0  0
    1.2289   -0.6644   -0.0132 C   0  0  0  0  0  0  0  0  0  0  0  0
    0.0021   -0.0041    0.0020 C   0  0  0  0  0  0  0  0  0  0  0  0
    1.2661   -2.1475   -0.0221 C   0  0  0  0  0  0  0  0  0  0  0  0
    2.3758   -2.8962   -0.0371 N   0  0  0  0  0  0  0  0  0  0  0  0
    0.1588   -5.0678   -0.0262 H   0  0  0  0  0  0  0  0  0  0  0  0
    2.0498   -4.1736   -0.0404 C   0  0  0  0  0  0  0  0  0  0  0  0
    0.6915   -4.2572   -0.0272 N   0  0  0  0  0  0  0  0  0  0  0  0
    0.2145   -2.9365   -0.0106 N   0  0  0  0  0  0  0  0  0  0  0  0
    2.9189   -5.2242   -0.0551 N   0  0  0  0  0  0  0  0  0  0  0  0
    4.2028   -5.0070   -0.0669 C   0  0  0  0  0  0  0  0  0  0  0  0
    4.6723   -3.7445   -0.0646 O   0  5  0  0  0  0  0  0  0  0  0  0
    5.1633   -6.1681   -0.0830 C   0  0  0  0  0  0  0  0  0  0  0  0
    4.4289   -7.3939   -0.0824 O   0  0  0  0  0  0  0  0  0  0  0  0
    5.1508   -8.5461   -0.0960 C   0  0  0  0  0  0  0  0  0  0  0  0
    6.5364   -8.4972   -0.1040 C   0  0  0  0  0  0  0  0  0  0  0  0
    7.2686   -9.6691   -0.1174 C   0  0  0  0  0  0  0  0  0  0  0  0
    6.6208  -10.8914   -0.1234 C   0  0  0  0  0  0  0  0  0  0  0  0
    5.2385  -10.9443   -0.1155 C   0  0  0  0  0  0  0  0  0  0  0  0
    4.5013   -9.7739   -0.0963 C   0  0  0  0  0  0  0  0  0  0  0  0
    3.1514   -9.8251   -0.0829 F   0  0  0  0  0  0  0  0  0  0  0  0
    7.6266  -12.4926   -0.1430 Br  0  0  0  0  0  0  0  0  0  0  0  0
   -0.9522    1.9192    0.0259 H   0  0  0  0  0  0  0  0  0  0  0  0
    1.2131    3.1386    0.0070 H   0  0  0  0  0  0  0  0  0  0  0  0
    3.3180    1.8650   -0.0200 H   0  0  0  0  0  0  0  0  0  0  0  0
   -0.9213   -0.5643    0.0082 H   0  0  0  0  0  0  0  0  0  0  0  0
    5.7818   -6.1156   -0.9790 H   0  0  0  0  0  0  0  0  0  0  0  0
    5.7998   -6.1255    0.8008 H   0  0  0  0  0  0  0  0  0  0  0  0
    7.0434   -7.5436   -0.1001 H   0  0  0  0  0  0  0  0  0  0  0  0
    8.3479   -9.6306   -0.1236 H   0  0  0  0  0  0  0  0  0  0  0  0
    4.7348  -11.8996   -0.1205 H   0  0  0  0  0  0  0  0  0  0  0  0
  1  6  2  0  0  0  0
  1  2  1  0  0  0  0
  1 26  1  0  0  0  0
  2  3  2  0  0  0  0
  2 27  1  0  0  0  0
  3  4  1  0  0  0  0
  3 28  1  0  0  0  0
  4  5  2  0  0  0  0
  5  6  1  0  0  0  0
  5  7  1  0  0  0  0
  6 29  1  0  0  0  0
  7  8  1  0  0  0  0
  7 12  2  0  0  0  0
  8 10  2  0  0  0  0
  9 11  1  0  0  0  0
 10 13  1  0  0  0  0
 10 11  1  0  0  0  0
 11 12  1  0  0  0  0
 13 14  2  0  0  0  0
 14 15  1  0  0  0  0
 14 16  1  0  0  0  0
 16 17  1  0  0  0  0
 16 30  1  0  0  0  0
 16 31  1  0  0  0  0
 17 18  1  0  0  0  0
 18 23  2  0  0  0  0
 18 19  1  0  0  0  0
 19 20  2  0  0  0  0
 19 32  1  0  0  0  0
 20 21  1  0  0  0  0
 20 33  1  0  0  0  0
 21 22  2  0  0  0  0
 21 25  1  0  0  0  0
 22 23  1  0  0  0  0
 22 34  1  0  0  0  0
 23 24  1  0  0  0  0
M  CHG  1  15  -1
M  END
$$$$
ZINC58492183
 OpenBabel01252620473D

 38 38  0  0  1  0  0  0  0  0999 V2000
   -0.2893    1.2730   -0.1861 C   0  0  0  0  0  0  0  0  0  0  0  0
   -0.0341   -0.2290   -0.0450 C   0  0  1  0  0  0  0  0  0  0  0  0
   -0.9867   -0.7576   -0.0098 H   0  0  0  0  0  0  0  0  0  0  0  0
    0.7671   -0.7155   -1.2249 C   0  0  0  0  0  0  0  0  0  0  0  0
    1.8907   -1.1414   -1.0608 O   0  0  0  0  0  0  0  0  0  0  0  0
    0.2350   -0.6772   -2.4626 N   0  0  0  0  0  0  0  0  0  0  0  0
    1.0139   -1.1502   -3.6098 C   0  0  0  0  0  0  0  0  0  0  0  0
    0.1847   -0.9987   -4.8866 C   0  0  0  0  0  0  0  0  0  0  0  0
    0.9981   -1.4926   -6.0846 C   0  0  0  0  0  0  0  0  0  0  0  0
    0.2237   -1.3511   -7.2772 O   0  0  0  0  0  0  0  0  0  0  0  0
    0.8950   -1.7863   -8.4612 C   0  0  0  0  0  0  0  0  0  0  0  0
    0.6932   -0.4774    1.1597 O   0  0  0  0  0  0  0  0  0  0  0  0
   -0.0294   -0.5995    2.3016 C   0  0  0  0  0  0  0  0  0  0  0  0
   -1.4006   -0.3694    2.2820 C   0  0  0  0  0  0  0  0  0  0  0  0
   -2.1378   -0.4920    3.4377 C   0  0  0  0  0  0  0  0  0  0  0  0
   -1.5060   -0.8493    4.6338 C   0  0  0  0  0  0  0  0  0  0  0  0
   -0.1264   -1.0805    4.6493 C   0  0  0  0  0  0  0  0  0  0  0  0
    0.6027   -0.9602    3.4871 C   0  0  0  0  0  0  0  0  0  0  0  0
    2.4665   -1.2792    3.5043 Br  0  0  0  0  0  0  0  0  0  0  0  0
   -2.2907   -0.9811    5.8726 C   0  0  0  0  0  0  0  0  0  0  0  0
   -3.4970   -0.7781    5.8571 O   0  0  0  0  0  0  0  0  0  0  0  0
   -1.7364   -1.2936    6.9175 O   0  0  0  0  0  1  0  0  0  0  0  0
    0.6633    1.8016   -0.2212 H   0  0  0  0  0  0  0  0  0  0  0  0
   -0.8441    1.4625   -1.1050 H   0  0  0  0  0  0  0  0  0  0  0  0
   -0.8688    1.6249    0.6674 H   0  0  0  0  0  0  0  0  0  0  0  0
   -0.6637   -0.3366   -2.5939 H   0  0  0  0  0  0  0  0  0  0  0  0
    1.9265   -0.5606   -3.6971 H   0  0  0  0  0  0  0  0  0  0  0  0
    1.2715   -2.1995   -3.4662 H   0  0  0  0  0  0  0  0  0  0  0  0
   -0.7280   -1.5882   -4.7992 H   0  0  0  0  0  0  0  0  0  0  0  0
   -0.0730    0.0506   -5.0302 H   0  0  0  0  0  0  0  0  0  0  0  0
    1.9108   -0.9031   -6.1720 H   0  0  0  0  0  0  0  0  0  0  0  0
    1.2558   -2.5420   -5.9410 H   0  0  0  0  0  0  0  0  0  0  0  0
    1.8055   -1.2028   -8.5979 H   0  0  0  0  0  0  0  0  0  0  0  0
    1.1505   -2.8417   -8.3670 H   0  0  0  0  0  0  0  0  0  0  0  0
    0.2410   -1.6462   -9.3219 H   0  0  0  0  0  0  0  0  0  0  0  0
   -1.8878   -0.0936    1.3585 H   0  0  0  0  0  0  0  0  0  0  0  0
   -3.2026   -0.3122    3.4214 H   0  0  0  0  0  0  0  0  0  0  0  0
    0.3655   -1.3561    5.5704 H   0  0  0  0  0  0  0  0  0  0  0  0
  1  2  1  0  0  0  0
  1 23  1  0  0  0  0
  1 24  1  0  0  0  0
  1 25  1  0  0  0  0
  2  3  1  1  0  0  0
  2  4  1  0  0  0  0
  2 12  1  0  0  0  0
  4  5  2  0  0  0  0
  4  6  1  0  0  0  0
  6  7  1  0  0  0  0
  6 26  1  0  0  0  0
  7  8  1  0  0  0  0
  7 27  1  0  0  0  0
  7 28  1  0  0  0  0
  8  9  1  0  0  0  0
  8 29  1  0  0  0  0
  8 30  1  0  0  0  0
  9 10  1  0  0  0  0
  9 31  1  0  0  0  0
  9 32  1  0  0  0  0
 10 11  1  0  0  0  0
 11 33  1  0  0  0  0
 11 34  1  0  0  0  0
 11 35  1  0  0  0  0
 12 13  1  0  0  0  0
 13 18  2  0  0  0  0
 13 14  1  0  0  0  0
 14 15  2  0  0  0  0
 14 36  1  0  0  0  0
 15 16  1  0  0  0  0
 15 37  1  0  0  0  0
 16 17  2  0  0  0  0
 16 20  1  0  0  0  0
 17 18  1  0  0  0  0
 17 38  1  0  0  0  0
 18 19  1  0  0  0  0
 20 21  2  0  0  0  0
 20 22  1  0  0  0  0
M  END
$$$$
ZINC65055884
 OpenBabel01252620473D

 43 45  0  0  1  0  0  0  0  0999 V2000
   -0.0184    1.5028    0.0103 C   0  0  0  0  0  0  0  0  0  0  0  0
    0.0021   -0.0041    0.0020 C   0  0  0  0  0  0  0  0  0  0  0  0
    0.0057   -0.6887   -1.1989 C   0  0  0  0  0  0  0  0  0  0  0  0
    0.0245   -2.0709   -1.2065 C   0  0  0  0  0  0  0  0  0  0  0  0
    0.0400   -2.7685   -0.0132 C   0  0  0  0  0  0  0  0  0  0  0  0
    0.0373   -2.0839    1.1877 C   0  0  0  0  0  0  0  0  0  0  0  0
    0.0229   -0.7016    1.1953 C   0  0  0  0  0  0  0  0  0  0  0  0
    0.0595   -4.2753   -0.0215 C   0  0  0  0  0  0  0  0  0  0  0  0
    1.4468   -4.7457   -0.0317 N   0  0  0  0  0  0  0  0  0  0  0  0
    1.7102   -6.0675   -0.0404 C   0  0  0  0  0  0  0  0  0  0  0  0
    0.7961   -6.8697   -0.0397 O   0  0  0  0  0  0  0  0  0  0  0  0
    3.1025   -6.5396   -0.0507 C   0  0  0  0  0  0  0  0  0  0  0  0
    3.5513   -7.8145   -0.0661 C   0  0  0  0  0  0  0  0  0  0  0  0
    4.9029   -7.8390   -0.0719 N   0  0  0  0  0  0  0  0  0  0  0  0
    5.4371   -6.7282   -0.0622 N   0  0  0  0  0  0  0  0  0  0  0  0
    4.3741   -5.7093   -0.0532 C   0  0  2  0  0  0  0  0  0  0  0  0
    4.4264   -5.0876   -0.9469 H   0  0  0  0  0  0  0  0  0  0  0  0
    4.4783   -4.6917    1.4448 S   0  0  0  0  0  0  0  0  0  0  0  0
    3.4679   -3.6927    1.4291 O   0  0  0  0  0  0  0  0  0  0  0  0
    4.6622   -5.5181    2.5861 O   0  0  0  0  0  0  0  0  0  0  0  0
    5.9005   -3.8568    1.2941 N   0  0  0  0  0  2  0  0  0  0  0  0
    6.2959   -2.9647    2.2935 C   0  0  0  0  0  0  0  0  0  0  0  0
    5.5002   -2.7810    3.4172 C   0  0  0  0  0  0  0  0  0  0  0  0
    5.8943   -1.8985    4.4037 C   0  0  0  0  0  0  0  0  0  0  0  0
    7.0794   -1.1979    4.2735 C   0  0  0  0  0  0  0  0  0  0  0  0
    7.8739   -1.3784    3.1562 C   0  0  0  0  0  0  0  0  0  0  0  0
    7.4885   -2.2636    2.1687 C   0  0  0  0  0  0  0  0  0  0  0  0
    1.0042    1.8801    0.0026 H   0  0  0  0  0  0  0  0  0  0  0  0
   -0.5455    1.8639   -0.8728 H   0  0  0  0  0  0  0  0  0  0  0  0
   -0.5286    1.8543    0.9071 H   0  0  0  0  0  0  0  0  0  0  0  0
   -0.0064   -0.1436   -2.1312 H   0  0  0  0  0  0  0  0  0  0  0  0
    0.0266   -2.6057   -2.1448 H   0  0  0  0  0  0  0  0  0  0  0  0
    0.0491   -2.6289    2.1200 H   0  0  0  0  0  0  0  0  0  0  0  0
    0.0245   -0.1667    2.1335 H   0  0  0  0  0  0  0  0  0  0  0  0
   -0.4447   -4.6501    0.8693 H   0  0  0  0  0  0  0  0  0  0  0  0
   -0.4546   -4.6404   -0.9106 H   0  0  0  0  0  0  0  0  0  0  0  0
    2.1759   -4.1059   -0.0323 H   0  0  0  0  0  0  0  0  0  0  0  0
    2.9192   -8.6901   -0.0725 H   0  0  0  0  0  0  0  0  0  0  0  0
    4.5741   -3.3273    3.5191 H   0  0  0  0  0  0  0  0  0  0  0  0
    5.2761   -1.7552    5.2776 H   0  0  0  0  0  0  0  0  0  0  0  0
    7.3850   -0.5078    5.0461 H   0  0  0  0  0  0  0  0  0  0  0  0
    8.7989   -0.8296    3.0577 H   0  0  0  0  0  0  0  0  0  0  0  0
    8.1117   -2.4075    1.2984 H   0  0  0  0  0  0  0  0  0  0  0  0
  1  2  1  0  0  0  0
  1 28  1  0  0  0  0
  1 29  1  0  0  0  0
  1 30  1  0  0  0  0
  2  7  2  0  0  0  0
  2  3  1  0  0  0  0
  3  4  2  0  0  0  0
  3 31  1  0  0  0  0
  4  5  1  0  0  0  0
  4 32  1  0  0  0  0
  5  6  2  0  0  0  0
  5  8  1  0  0  0  0
  6  7  1  0  0  0  0
  6 33  1  0  0  0  0
  7 34  1  0  0  0  0
  8  9  1  0  0  0  0
  8 35  1  0  0  0  0
  8 36  1  0  0  0  0
  9 10  1  0  0  0  0
  9 37  1  0  0  0  0
 10 11  2  0  0  0  0
 10 12  1  0  0  0  0
 12 16  1  0  0  0  0
 12 13  2  0  0  0  0
 13 14  1  0  0  0  0
 13 38  1  0  0  0  0
 14 15  2  0  0  0  0
 15 16  1  0  0  0  0
 16 17  1  6  0  0  0
 16 18  1  0  0  0  0
 18 19  2  0  0  0  0
 18 20  2  0  0  0  0
 18 21  1  0  0  0  0
 21 22  1  0  0  0  0
 22 27  2  0  0  0  0
 22 23  1  0  0  0  0
 23 24  2  0  0  0  0
 23 39  1  0  0  0  0
 24 25  1  0  0  0  0
 24 40  1  0  0  0  0
 25 26  2  0  0  0  0
 25 41  1  0  0  0  0
 26 27  1  0  0  0  0
 26 42  1  0  0  0  0
 27 43  1  0  0  0  0
M  END
$$$$
ZINC06294281
 OpenBabel01252620473D

 50 53  0  0  1  0  0  0  0  0999 V2000
   -3.4981    5.3163  -10.3905 C   0  0  0  0  0  0  0  0  0  0  0  0
   -2.7505    5.5130   -9.0701 C   0  0  0  0  0  0  0  0  0  0  0  0
   -3.0170    4.3197   -8.1504 C   0  0  0  0  0  0  0  0  0  0  0  0
   -2.3187    4.5035   -6.9173 O   0  0  0  0  0  0  0  0  0  0  0  0
   -2.4502    3.5260   -5.9822 C   0  0  0  0  0  0  0  0  0  0  0  0
   -3.2370    2.4124   -6.2481 C   0  0  0  0  0  0  0  0  0  0  0  0
   -3.3753    1.4138   -5.3013 C   0  0  0  0  0  0  0  0  0  0  0  0
   -2.7289    1.5138   -4.0870 C   0  0  0  0  0  0  0  0  0  0  0  0
   -1.9391    2.6334   -3.8069 C   0  0  0  0  0  0  0  0  0  0  0  0
   -1.8006    3.6411   -4.7659 C   0  0  0  0  0  0  0  0  0  0  0  0
   -1.2510    2.7476   -2.5088 C   0  0  0  0  0  0  0  0  0  0  0  0
   -1.9579    2.5789   -1.3363 C   0  0  0  0  0  0  0  0  0  0  0  0
   -1.3930    2.5203    0.0642 C   0  0  1  0  0  0  0  0  0  0  0  0
   -0.8581    3.4437    0.3311 H   0  0  0  0  0  0  0  0  0  0  0  0
   -2.5303    2.3313    0.9692 N   0  0  0  0  0  0  0  0  0  0  0  0
   -3.6611    2.2764    0.2440 C   0  0  0  0  0  0  0  0  0  0  0  0
   -4.7750    2.1260    0.7027 O   0  0  0  0  0  0  0  0  0  0  0  0
   -3.3480    2.4276   -1.2031 C   0  0  0  0  0  0  0  0  0  0  0  0
   -4.1564    2.4217   -2.1135 O   0  5  0  0  0  0  0  0  0  0  0  0
   -2.4475    2.2195    2.4276 C   0  0  0  0  0  0  0  0  0  0  0  0
   -2.5609    3.5902    3.0437 C   0  0  0  0  0  0  0  0  0  0  0  0
   -3.7045    4.1943    3.4133 C   0  0  0  0  0  0  0  0  0  0  0  0
   -3.3486    5.4563    3.9421 C   0  0  0  0  0  0  0  0  0  0  0  0
   -2.0096    5.5512    3.8565 C   0  0  0  0  0  0  0  0  0  0  0  0
   -1.5378    4.4180    3.3116 O   0  0  0  0  0  0  0  0  0  0  0  0
   -0.4376    1.3614    0.1871 C   0  0  0  0  0  0  0  0  0  0  0  0
    0.9049    1.4430    0.1655 C   0  0  0  0  0  0  0  0  0  0  0  0
    1.3976    0.1251    0.3045 C   0  0  0  0  0  0  0  0  0  0  0  0
    0.3267   -0.6830    0.4026 C   0  0  0  0  0  0  0  0  0  0  0  0
   -0.7822    0.0713    0.3309 O   0  0  0  0  0  0  0  0  0  0  0  0
    0.0711    3.0172   -2.4671 O   0  0  0  0  0  0  0  0  0  0  0  0
   -3.3065    6.1743  -11.0517 H   0  0  0  0  0  0  0  0  0  0  0  0
   -4.5775    5.2396  -10.1928 H   0  0  0  0  0  0  0  0  0  0  0  0
   -3.1478    4.3936  -10.8762 H   0  0  0  0  0  0  0  0  0  0  0  0
   -1.6711    5.5897   -9.2678 H   0  0  0  0  0  0  0  0  0  0  0  0
   -3.1007    6.4357   -8.5843 H   0  0  0  0  0  0  0  0  0  0  0  0
   -4.0964    4.2430   -7.9527 H   0  0  0  0  0  0  0  0  0  0  0  0
   -2.6668    3.3970   -8.6361 H   0  0  0  0  0  0  0  0  0  0  0  0
   -3.7425    2.3260   -7.1986 H   0  0  0  0  0  0  0  0  0  0  0  0
   -3.9880    0.5506   -5.5153 H   0  0  0  0  0  0  0  0  0  0  0  0
   -2.8358    0.7302   -3.3516 H   0  0  0  0  0  0  0  0  0  0  0  0
   -1.1884    4.5063   -4.5582 H   0  0  0  0  0  0  0  0  0  0  0  0
   -3.2673    1.5839    2.7937 H   0  0  0  0  0  0  0  0  0  0  0  0
   -1.4828    1.7706    2.7068 H   0  0  0  0  0  0  0  0  0  0  0  0
   -4.7027    3.7917    3.3251 H   0  0  0  0  0  0  0  0  0  0  0  0
   -4.0229    6.2027    4.3353 H   0  0  0  0  0  0  0  0  0  0  0  0
   -1.4148    6.3956    4.1722 H   0  0  0  0  0  0  0  0  0  0  0  0
    1.4935    2.3425    0.0620 H   0  0  0  0  0  0  0  0  0  0  0  0
    2.4347   -0.1753    0.3269 H   0  0  0  0  0  0  0  0  0  0  0  0
    0.3540   -1.7564    0.5190 H   0  0  0  0  0  0  0  0  0  0  0  0
  1  2  1  0  0  0  0
  1 32  1  0  0  0  0
  1 33  1  0  0  0  0
  1 34  1  0  0  0  0
  2  3  1  0  0  0  0
  2 35  1  0  0  0  0
  2 36  1  0  0  0  0
  3  4  1  0  0  0  0
  3 37  1  0  0  0  0
  3 38  1  0  0  0  0
  4  5  1  0  0  0  0
  5 10  2  0  0  0  0
  5  6  1  0  0  0  0
  6  7  2  0  0  0  0
  6 39  1  0  0  0  0
  7  8  1  0  0  0  0
  7 40  1  0  0  0  0
  8  9  2  0  0  0  0
  8 41  1  0  0  0  0
  9 10  1  0  0  0  0
  9 11  1  0  0  0  0
 10 42  1  0  0  0  0
 11 12  1  0  0  0  0
 11 31  2  0  0  0  0
 12 18  2  0  0  0  0
 12 13  1  0  0  0  0
 13 14  1  1  0  0  0
 13 15  1  0  0  0  0
 13 26  1  0  0  0  0
 15 16  1  0  0  0  0
 15 20  1  0  0  0  0
 16 17  2  0  0  0  0
 16 18  1  0  0  0  0
 18 19  1  0  0  0  0
 20 21  1  0  0  0  0
 20 43  1  0  0  0  0
 20 44  1  0  0  0  0
 21 25  1  0  0  0  0
 21 22  2  0  0  0  0
 22 23  1  0  0  0  0
 22 45  1  0  0  0  0
 23 24  2  0  0  0  0
 23 46  1  0  0  0  0
 24 25  1  0  0  0  0
 24 47  1  0  0  0  0
 26 30  1  0  0  0  0
 26 27  2  0  0  0  0
 27 28  1  0  0  0  0
 27 48  1  0  0  0  0
 28 29  2  0  0  0  0
 28 49  1  0  0  0  0
 29 30  1  0  0  0  0
 29 50  1  0  0  0  0
M  CHG  1  19  -1
M  END
$$$$
ZINC15009808
 OpenBabel01252620473D

 37 39  0  0  0  0  0  0  0  0999 V2000
    1.1607    3.1246    0.6030 C   0  0  0  0  0  0  0  0  0  0  0  0
    0.6058    2.5039    1.7070 C   0  0  0  0  0  0  0  0  0  0  0  0
   -0.5840    1.8128    1.5872 C   0  0  0  0  0  0  0  0  0  0  0  0
   -1.2200    1.7368    0.3553 C   0  0  0  0  0  0  0  0  0  0  0  0
   -0.6635    2.3664   -0.7501 C   0  0  0  0  0  0  0  0  0  0  0  0
    0.5265    3.0560   -0.6239 C   0  0  0  0  0  0  0  0  0  0  0  0
   -2.4242    1.0315    0.2291 N   0  0  0  0  0  0  0  0  0  0  0  0
   -3.5693    1.6863    0.3214 C   0  0  0  0  0  0  0  0  0  0  0  0
   -3.6051    2.8876    0.5137 O   0  0  0  0  0  0  0  0  0  0  0  0
   -4.8021    0.8873    0.1748 C   0  0  0  0  0  0  0  0  0  0  0  0
   -6.1000    1.2827    0.2192 C   0  0  0  0  0  0  0  0  0  0  0  0
   -6.4314    2.7131    0.2397 C   0  0  0  0  0  0  0  0  0  0  0  0
   -7.5057    3.1745    1.0104 C   0  0  0  0  0  0  0  0  0  0  0  0
   -7.8081    4.5175    1.0308 C   0  0  0  0  0  0  0  0  0  0  0  0
   -7.0567    5.4132    0.2789 C   0  0  0  0  0  0  0  0  0  0  0  0
   -5.9931    4.9599   -0.4929 C   0  0  0  0  0  0  0  0  0  0  0  0
   -5.6779    3.6200   -0.5159 C   0  0  0  0  0  0  0  0  0  0  0  0
   -7.3631    6.7358    0.2979 O   0  0  0  0  0  0  0  0  0  0  0  0
   -8.4680    7.1341    1.1119 C   0  0  0  0  0  0  0  0  0  0  0  0
   -8.6566    8.6256    1.0080 C   0  0  0  0  0  0  0  0  0  0  0  0
   -7.9203    9.2804    0.3086 O   0  0  0  0  0  0  0  0  0  0  0  0
   -4.1159   -0.7450   -0.0705 S   0  0  0  0  0  0  0  0  0  0  0  0
   -2.3890   -0.3007    0.0219 C   0  0  0  0  0  0  0  0  0  0  0  0
   -1.0201   -1.3190   -0.1194 S   0  0  0  0  0  0  0  0  0  0  0  0
    2.0912    3.6645    0.6993 H   0  0  0  0  0  0  0  0  0  0  0  0
    1.1034    2.5592    2.6640 H   0  0  0  0  0  0  0  0  0  0  0  0
   -1.0169    1.3282    2.4498 H   0  0  0  0  0  0  0  0  0  0  0  0
   -1.1581    2.3128   -1.7087 H   0  0  0  0  0  0  0  0  0  0  0  0
    0.9624    3.5418   -1.4843 H   0  0  0  0  0  0  0  0  0  0  0  0
   -6.8888    0.5453    0.2393 H   0  0  0  0  0  0  0  0  0  0  0  0
   -8.0931    2.4788    1.5913 H   0  0  0  0  0  0  0  0  0  0  0  0
   -8.6332    4.8752    1.6289 H   0  0  0  0  0  0  0  0  0  0  0  0
   -5.4127    5.6602   -1.0752 H   0  0  0  0  0  0  0  0  0  0  0  0
   -4.8509    3.2690   -1.1153 H   0  0  0  0  0  0  0  0  0  0  0  0
   -9.3716    6.6290    0.7705 H   0  0  0  0  0  0  0  0  0  0  0  0
   -8.2709    6.8642    2.1494 H   0  0  0  0  0  0  0  0  0  0  0  0
   -9.6424    9.2268    1.6924 O   0  0  0  0  0  1  0  0  0  0  0  0
  1  6  2  0  0  0  0
  1  2  1  0  0  0  0
  1 25  1  0  0  0  0
  2  3  2  0  0  0  0
  2 26  1  0  0  0  0
  3  4  1  0  0  0  0
  3 27  1  0  0  0  0
  4  5  2  0  0  0  0
  4  7  1  0  0  0  0
  5  6  1  0  0  0  0
  5 28  1  0  0  0  0
  6 29  1  0  0  0  0
  7 23  1  0  0  0  0
  7  8  1  0  0  0  0
  8  9  2  0  0  0  0
  8 10  1  0  0  0  0
 10 11  2  0  0  0  0
 10 22  1  0  0  0  0
 11 12  1  0  0  0  0
 11 30  1  0  0  0  0
 12 17  2  0  0  0  0
 12 13  1  0  0  0  0
 13 14  2  0  0  0  0
 13 31  1  0  0  0  0
 14 15  1  0  0  0  0
 14 32  1  0  0  0  0
 15 16  2  0  0  0  0
 15 18  1  0  0  0  0
 16 17  1  0  0  0  0
 16 33  1  0  0  0  0
 17 34  1  0  0  0  0
 18 19  1  0  0  0  0
 19 20  1  0  0  0  0
 19 35  1  0  0  0  0
 19 36  1  0  0  0  0
 20 21  2  0  0  0  0
 20 37  1  0  0  0  0
 22 23  1  0  0  0  0
 23 24  2  0  0  0  0
M  END
$$$$
ZINC13563727
 OpenBabel01252620473D

 50 53  0  0  1  0  0  0  0  0999 V2000
   -5.9695   -2.3675    3.8079 C   0  0  0  0  0  0  0  0  0  0  0  0
   -5.4732   -2.7144    2.4739 N   0  0  0  0  0  0  0  0  0  0  0  0
   -5.0202   -1.8676    1.5194 C   0  0  0  0  0  0  0  0  0  0  0  0
   -4.6808   -2.6009    0.4814 N   0  0  0  0  0  0  0  0  0  0  0  0
   -4.8817   -3.8457    0.7252 N   0  0  0  0  0  0  0  0  0  0  0  0
   -5.3643   -3.9979    1.9107 N   0  0  0  0  0  0  0  0  0  0  0  0
   -4.9128   -0.1131    1.6417 S   0  0  0  0  0  0  0  0  0  0  0  0
   -4.2326    0.2747    0.0098 C   0  0  0  0  0  0  0  0  0  0  0  0
   -4.0500    1.7652   -0.1170 C   0  0  0  0  0  0  0  0  0  0  0  0
   -2.8101    2.2114    0.0226 C   0  0  0  0  0  0  0  0  0  0  0  0
   -2.5387    3.5839   -0.0326 N   0  0  0  0  0  0  0  0  0  0  0  0
   -3.4167    4.6563   -0.5795 C   0  0  2  0  0  0  0  0  0  0  0  0
   -3.3700    4.7802   -1.6614 H   0  0  0  0  0  0  0  0  0  0  0  0
   -2.6144    5.6766    0.2081 C   0  0  1  0  0  0  0  0  0  0  0  0
   -3.0869    6.0038    1.1343 H   0  0  0  0  0  0  0  0  0  0  0  0
   -1.6721    4.5063    0.3672 C   0  0  0  0  0  0  0  0  0  0  0  0
   -0.5186    4.4343    0.7350 O   0  0  0  0  0  0  0  0  0  0  0  0
   -2.0817    6.7795   -0.5956 N   0  0  0  0  0  0  0  0  0  0  0  0
   -1.8087    7.9652   -0.0158 C   0  0  0  0  0  0  0  0  0  0  0  0
   -2.0045    8.1194    1.1734 O   0  0  0  0  0  0  0  0  0  0  0  0
   -1.2698    9.0809   -0.8288 C   0  0  0  0  0  0  0  0  0  0  0  0
   -1.0599    8.9156   -2.1037 N   0  0  0  0  0  0  0  0  0  0  0  0
   -0.6658   10.0148   -2.9046 O   0  0  0  0  0  0  0  0  0  0  0  0
   -0.4709    9.6896   -4.2825 C   0  0  0  0  0  0  0  0  0  0  0  0
   -0.9702   10.3823   -0.1926 C   0  0  0  0  0  0  0  0  0  0  0  0
   -1.7518   10.8680    0.9135 C   0  0  0  0  0  0  0  0  0  0  0  0
   -1.4181   12.0678    1.4517 C   0  0  0  0  0  0  0  0  0  0  0  0
   -0.0315   12.5760    0.4528 S   0  0  0  0  0  0  0  0  0  0  0  0
    0.0558   11.1686   -0.6385 C   0  0  0  0  0  0  0  0  0  0  0  0
   -2.0159   12.7404    2.5184 N   0  0  0  0  0  0  0  0  0  0  0  0
   -5.0928    4.2963    0.0469 S   0  0  0  0  0  0  0  0  0  0  0  0
   -5.2827    2.5456   -0.4115 C   0  0  0  0  0  0  0  0  0  0  0  0
   -1.7077    1.2554    0.2316 C   0  0  0  0  0  0  0  0  0  0  0  0
   -1.2402    1.1006    1.3424 O   0  0  0  0  0  0  0  0  0  0  0  0
   -7.0450   -2.1963    3.7623 H   0  0  0  0  0  0  0  0  0  0  0  0
   -5.7606   -3.1855    4.4973 H   0  0  0  0  0  0  0  0  0  0  0  0
   -5.4720   -1.4624    4.1566 H   0  0  0  0  0  0  0  0  0  0  0  0
   -4.9186   -0.0743   -0.7620 H   0  0  0  0  0  0  0  0  0  0  0  0
   -3.2691   -0.2209   -0.1093 H   0  0  0  0  0  0  0  0  0  0  0  0
   -1.9254    6.6564   -1.5449 H   0  0  0  0  0  0  0  0  0  0  0  0
   -0.1706   10.5842   -4.8280 H   0  0  0  0  0  0  0  0  0  0  0  0
    0.3077    8.9320   -4.3704 H   0  0  0  0  0  0  0  0  0  0  0  0
   -1.4013    9.3046   -4.7000 H   0  0  0  0  0  0  0  0  0  0  0  0
   -2.5771   10.2927    1.3063 H   0  0  0  0  0  0  0  0  0  0  0  0
    0.7462   10.9835   -1.4481 H   0  0  0  0  0  0  0  0  0  0  0  0
   -1.6748   13.6037    2.7998 H   0  0  0  0  0  0  0  0  0  0  0  0
   -2.7726   12.3445    2.9784 H   0  0  0  0  0  0  0  0  0  0  0  0
   -6.1065    2.1169    0.1592 H   0  0  0  0  0  0  0  0  0  0  0  0
   -5.5161    2.4806   -1.4742 H   0  0  0  0  0  0  0  0  0  0  0  0
   -1.2146    0.5572   -0.8104 O   0  0  0  0  0  1  0  0  0  0  0  0
  1  2  1  0  0  0  0
  1 35  1  0  0  0  0
  1 36  1  0  0  0  0
  1 37  1  0  0  0  0
  2  6  1  0  0  0  0
  2  3  1  0  0  0  0
  3  4  2  0  0  0  0
  3  7  1  0  0  0  0
  4  5  1  0  0  0  0
  5  6  2  0  0  0  0
  7  8  1  0  0  0  0
  8  9  1  0  0  0  0
  8 38  1  0  0  0  0
  8 39  1  0  0  0  0
  9 32  1  0  0  0  0
  9 10  2  0  0  0  0
 10 11  1  0  0  0  0
 10 33  1  0  0  0  0
 11 16  1  0  0  0  0
 11 12  1  0  0  0  0
 12 13  1  6  0  0  0
 12 14  1  0  0  0  0
 12 31  1  0  0  0  0
 14 15  1  1  0  0  0
 14 16  1  0  0  0  0
 14 18  1  0  0  0  0
 16 17  2  0  0  0  0
 18 19  1  0  0  0  0
 18 40  1  0  0  0  0
 19 20  2  0  0  0  0
 19 21  1  0  0  0  0
 21 22  2  0  0  0  0
 21 25  1  0  0  0  0
 22 23  1  0  0  0  0
 23 24  1  0  0  0  0
 24 41  1  0  0  0  0
 24 42  1  0  0  0  0
 24 43  1  0  0  0  0
 25 29  2  0  0  0  0
 25 26  1  0  0  0  0
 26 27  2  0  0  0  0
 26 44  1  0  0  0  0
 27 28  1  0  0  0  0
 27 30  1  0  0  0  0
 28 29  1  0  0  0  0
 29 45  1  0  0  0  0
 30 46  1  0  0  0  0
 30 47  1  0  0  0  0
 31 32  1  0  0  0  0
 32 48  1  0  0  0  0
 32 49  1  0  0  0  0
 33 34  2  0  0  0  0
 33 50  1  0  0  0  0
M  END
$$$$
ZINC47211536
 OpenBabel01252620473D

 36 38  0  0  0  0  0  0  0  0999 V2000
   -0.5788    1.4386    0.0969 C   0  0  0  0  0  0  0  0  0  0  0  0
   -0.2670   -0.0348    0.0436 C   0  0  0  0  0  0  0  0  0  0  0  0
   -0.3659   -0.7197   -1.1497 C   0  0  0  0  0  0  0  0  0  0  0  0
   -0.0800   -2.0725   -1.2006 C   0  0  0  0  0  0  0  0  0  0  0  0
    0.3069   -2.7484   -0.0564 C   0  0  0  0  0  0  0  0  0  0  0  0
    0.4096   -2.0768    1.1437 C   0  0  0  0  0  0  0  0  0  0  0  0
    0.1284   -0.7092    1.2013 C   0  0  0  0  0  0  0  0  0  0  0  0
    0.2428    0.0177    2.4801 C   0  0  0  0  0  0  0  0  0  0  0  0
    0.9234    1.0314    2.5484 O   0  0  0  0  0  0  0  0  0  0  0  0
   -0.3431   -0.3934    3.4717 O   0  0  0  0  0  1  0  0  0  0  0  0
    0.6684   -4.4712   -0.1332 S   0  0  0  0  0  0  0  0  0  0  0  0
    0.4791   -4.9847    1.1782 O   0  0  0  0  0  0  0  0  0  0  0  0
   -0.0300   -4.9829   -1.2599 O   0  0  0  0  0  0  0  0  0  0  0  0
    2.2831   -4.6181   -0.4704 N   0  0  0  0  0  2  0  0  0  0  0  0
    2.8595   -5.8864   -0.5917 C   0  0  0  0  0  0  0  0  0  0  0  0
    4.2132   -6.0106   -0.8685 C   0  0  0  0  0  0  0  0  0  0  0  0
    4.7816   -7.2703   -0.9876 C   0  0  0  0  0  0  0  0  0  0  0  0
    3.9956   -8.4040   -0.8298 C   0  0  0  0  0  0  0  0  0  0  0  0
    2.6472   -8.2794   -0.5541 C   0  0  0  0  0  0  0  0  0  0  0  0
    2.0774   -7.0253   -0.4293 C   0  0  0  0  0  0  0  0  0  0  0  0
    0.7600   -6.9064   -0.1546 F   0  0  0  0  0  0  0  0  0  0  0  0
    6.1504   -7.3989   -1.2680 N   0  0  0  0  0  0  0  0  0  0  0  0
    6.8524   -8.5426   -1.4198 C   0  0  0  0  0  0  0  0  0  0  0  0
    8.0912   -8.2075   -1.6702 N   0  0  0  0  0  0  0  0  0  0  0  0
    8.2200   -6.9299   -1.6870 N   0  0  0  0  0  0  0  0  0  0  0  0
    7.0840   -6.3647   -1.4572 N   0  0  0  0  0  0  0  0  0  0  0  0
    0.3441    2.0093   -0.0057 H   0  0  0  0  0  0  0  0  0  0  0  0
   -1.2575    1.6960   -0.7163 H   0  0  0  0  0  0  0  0  0  0  0  0
   -1.0488    1.6762    1.0513 H   0  0  0  0  0  0  0  0  0  0  0  0
   -0.6675   -0.1988   -2.0464 H   0  0  0  0  0  0  0  0  0  0  0  0
   -0.1594   -2.6037   -2.1375 H   0  0  0  0  0  0  0  0  0  0  0  0
    0.7112   -2.6056    2.0358 H   0  0  0  0  0  0  0  0  0  0  0  0
    4.8234   -5.1280   -0.9913 H   0  0  0  0  0  0  0  0  0  0  0  0
    4.4386   -9.3845   -0.9231 H   0  0  0  0  0  0  0  0  0  0  0  0
    2.0381   -9.1628   -0.4322 H   0  0  0  0  0  0  0  0  0  0  0  0
    6.4631   -9.5474   -1.3475 H   0  0  0  0  0  0  0  0  0  0  0  0
  1  2  1  0  0  0  0
  1 27  1  0  0  0  0
  1 28  1  0  0  0  0
  1 29  1  0  0  0  0
  2  7  2  0  0  0  0
  2  3  1  0  0  0  0
  3  4  2  0  0  0  0
  3 30  1  0  0  0  0
  4  5  1  0  0  0  0
  4 31  1  0  0  0  0
  5  6  2  0  0  0  0
  5 11  1  0  0  0  0
  6  7  1  0  0  0  0
  6 32  1  0  0  0  0
  7  8  1  0  0  0  0
  8  9  2  0  0  0  0
  8 10  1  0  0  0  0
 11 12  2  0  0  0  0
 11 13  2  0  0  0  0
 11 14  1  0  0  0  0
 14 15  1  0  0  0  0
 15 20  2  0  0  0  0
 15 16  1  0  0  0  0
 16 17  2  0  0  0  0
 16 33  1  0  0  0  0
 17 18  1  0  0  0  0
 17 22  1  0  0  0  0
 18 19  2  0  0  0  0
 18 34  1  0  0  0  0
 19 20  1  0  0  0  0
 19 35  1  0  0  0  0
 20 21  1  0  0  0  0
 22 26  1  0  0  0  0
 22 23  1  0  0  0  0
 23 24  2  0  0  0  0
 23 36  1  0  0  0  0
 24 25  1  0  0  0  0
 25 26  2  0  0  0  0
M  END
$$$$
ZINC39345556
 OpenBabel01252620473D

 34 36  0  0  1  0  0  0  0  0999 V2000
   -0.0088    1.3366   -0.2023 C   0  0  0  0  0  0  0  0  0  0  0  0
    1.2056    2.0708   -0.2155 C   0  0  0  0  0  0  0  0  0  0  0  0
    1.4564    3.3421   -0.3886 N   0  0  0  0  0  2  0  0  0  0  0  0
    2.9104    3.5199   -0.2984 C   0  0  2  0  0  0  0  0  0  0  0  0
    3.2968    3.9221   -1.2350 H   0  0  0  0  0  0  0  0  0  0  0  0
    3.4765    2.1888   -0.0504 N   0  0  0  0  0  0  0  0  0  0  0  0
    2.4859    1.3438   -0.0018 C   0  0  0  0  0  0  0  0  0  0  0  0
    2.4412   -0.1088    0.2155 C   0  0  0  0  0  0  0  0  0  0  0  0
    1.2478   -0.7404    0.2153 C   0  0  0  0  0  0  0  0  0  0  0  0
    0.0021   -0.0041    0.0020 C   0  0  0  0  0  0  0  0  0  0  0  0
   -1.1998   -0.6951    0.0097 N   0  0  0  0  0  4  0  0  0  0  0  0
   -2.4821    0.0167    0.1295 C   0  0  0  0  0  0  0  0  0  0  0  0
   -3.4111   -0.4690   -0.9890 C   0  0  0  0  0  0  0  0  0  0  0  0
   -3.4728   -1.8970   -0.9627 O   0  0  0  0  0  0  0  0  0  0  0  0
   -2.2208   -2.5416   -1.2094 C   0  0  0  0  0  0  0  0  0  0  0  0
   -1.2312   -2.1616   -0.1078 C   0  0  0  0  0  0  0  0  0  0  0  0
    1.2037   -2.0759    0.4143 F   0  0  0  0  0  0  0  0  0  0  0  0
    3.3172    4.6360    1.0725 S   0  0  0  0  0  0  0  0  0  0  0  0
    2.6466    3.7976    2.5347 C   0  0  0  0  0  0  0  0  0  0  0  0
    2.9202    4.6301    3.7607 C   0  0  0  0  0  0  0  0  0  0  0  0
    3.5126    5.6908    3.6576 O   0  0  0  0  0  0  0  0  0  0  0  0
    2.5491    4.2431    4.8557 O   0  0  0  0  0  1  0  0  0  0  0  0
   -0.9477    1.8493   -0.3513 H   0  0  0  0  0  0  0  0  0  0  0  0
    3.3532   -0.6654    0.3732 H   0  0  0  0  0  0  0  0  0  0  0  0
   -2.9317   -0.1975    1.0991 H   0  0  0  0  0  0  0  0  0  0  0  0
   -2.3172    1.0896    0.0298 H   0  0  0  0  0  0  0  0  0  0  0  0
   -4.4094   -0.0586   -0.8371 H   0  0  0  0  0  0  0  0  0  0  0  0
   -3.0238   -0.1390   -1.9529 H   0  0  0  0  0  0  0  0  0  0  0  0
   -2.3628   -3.6223   -1.2160 H   0  0  0  0  0  0  0  0  0  0  0  0
   -1.8292   -2.2192   -2.1741 H   0  0  0  0  0  0  0  0  0  0  0  0
   -0.2383   -2.5306   -0.3647 H   0  0  0  0  0  0  0  0  0  0  0  0
   -1.5527   -2.5988    0.8375 H   0  0  0  0  0  0  0  0  0  0  0  0
    1.5709    3.6666    2.4170 H   0  0  0  0  0  0  0  0  0  0  0  0
    3.1215    2.8226    2.6442 H   0  0  0  0  0  0  0  0  0  0  0  0
  1 10  1  0  0  0  0
  1  2  2  0  0  0  0
  1 23  1  0  0  0  0
  2  7  1  0  0  0  0
  2  3  1  0  0  0  0
  3  4  1  0  0  0  0
  4  5  1  6  0  0  0
  4  6  1  0  0  0  0
  4 18  1  0  0  0  0
  6  7  2  0  0  0  0
  7  8  1  0  0  0  0
  8  9  2  0  0  0  0
  8 24  1  0  0  0  0
  9 10  1  0  0  0  0
  9 17  1  0  0  0  0
 10 11  2  0  0  0  0
 11 16  1  0  0  0  0
 11 12  1  0  0  0  0
 12 13  1  0  0  0  0
 12 25  1  0  0  0  0
 12 26  1  0  0  0  0
 13 14  1  0  0  0  0
 13 27  1  0  0  0  0
 13 28  1  0  0  0  0
 14 15  1  0  0  0  0
 15 16  1  0  0  0  0
 15 29  1  0  0  0  0
 15 30  1  0  0  0  0
 16 31  1  0  0  0  0
 16 32  1  0  0  0  0
 18 19  1  0  0  0  0
 19 20  1  0  0  0  0
 19 33  1  0  0  0  0
 19 34  1  0  0  0  0
 20 21  2  0  0  0  0
 20 22  1  0  0  0  0
M  END
$$$$
ZINC63476368
 OpenBabel01252620473D

 43 44  0  0  0  0  0  0  0  0999 V2000
   -0.0184    1.5028    0.0103 C   0  0  0  0  0  0  0  0  0  0  0  0
    0.0021   -0.0041    0.0020 C   0  0  0  0  0  0  0  0  0  0  0  0
    0.0057   -0.6889   -1.1980 C   0  0  0  0  0  0  0  0  0  0  0  0
    0.0240   -2.0712   -1.2062 C   0  0  0  0  0  0  0  0  0  0  0  0
    0.0391   -2.7720   -0.0142 C   0  0  0  0  0  0  0  0  0  0  0  0
    0.0359   -2.0920    1.1881 C   0  0  0  0  0  0  0  0  0  0  0  0
    0.0230   -0.7046    1.1991 C   0  0  0  0  0  0  0  0  0  0  0  0
    0.0255   -0.0332    2.3806 O   0  0  0  0  0  0  0  0  0  0  0  0
    0.0475   -0.8196    3.5736 C   0  0  0  0  0  0  0  0  0  0  0  0
    0.0471    0.0902    4.7750 C   0  0  0  0  0  0  0  0  0  0  0  0
    0.0296    1.2998    4.6237 O   0  0  0  0  0  0  0  0  0  0  0  0
    0.0642   -0.3835    5.8983 O   0  0  0  0  0  1  0  0  0  0  0  0
    0.0274   -2.9416   -2.7383 S   0  0  0  0  0  0  0  0  0  0  0  0
   -0.5050   -4.2322   -2.4733 O   0  0  0  0  0  0  0  0  0  0  0  0
   -0.5401   -2.0668   -3.7036 O   0  0  0  0  0  0  0  0  0  0  0  0
    1.6102   -3.1625   -3.1723 N   0  0  0  0  0  0  0  0  0  0  0  0
    2.4727   -3.8808   -2.3339 N   0  0  0  0  0  0  0  0  0  0  0  0
    3.1520   -4.9409   -2.8149 C   0  0  0  0  0  0  0  0  0  0  0  0
    3.0162   -5.2739   -3.9767 O   0  0  0  0  0  0  0  0  0  0  0  0
    4.0594   -5.6965   -1.9330 C   0  0  0  0  0  0  0  0  0  0  0  0
    4.3363   -5.4391   -0.5123 C   0  0  0  0  0  0  0  0  0  0  0  0
    5.2178   -6.3767   -0.1326 C   0  0  0  0  0  0  0  0  0  0  0  0
    5.4964   -7.1683   -1.1801 O   0  0  0  0  0  0  0  0  0  0  0  0
    4.8132   -6.7846   -2.2628 C   0  0  0  0  0  0  0  0  0  0  0  0
    4.8685   -7.4406   -3.6184 C   0  0  0  0  0  0  0  0  0  0  0  0
    5.8018   -6.5185    1.2494 C   0  0  0  0  0  0  0  0  0  0  0  0
    1.0042    1.8801    0.0026 H   0  0  0  0  0  0  0  0  0  0  0  0
   -0.5455    1.8639   -0.8728 H   0  0  0  0  0  0  0  0  0  0  0  0
   -0.5286    1.8543    0.9071 H   0  0  0  0  0  0  0  0  0  0  0  0
   -0.0060   -0.1439   -2.1303 H   0  0  0  0  0  0  0  0  0  0  0  0
    0.0529   -3.8519   -0.0233 H   0  0  0  0  0  0  0  0  0  0  0  0
    0.0477   -2.6398    2.1188 H   0  0  0  0  0  0  0  0  0  0  0  0
   -0.8338   -1.4603    3.6027 H   0  0  0  0  0  0  0  0  0  0  0  0
    0.9459   -1.4367    3.5855 H   0  0  0  0  0  0  0  0  0  0  0  0
    1.9401   -2.7946   -4.0070 H   0  0  0  0  0  0  0  0  0  0  0  0
    2.5810   -3.6152   -1.4073 H   0  0  0  0  0  0  0  0  0  0  0  0
    3.9164   -4.6552    0.1005 H   0  0  0  0  0  0  0  0  0  0  0  0
    5.6576   -6.9802   -4.2129 H   0  0  0  0  0  0  0  0  0  0  0  0
    5.0768   -8.5039   -3.4992 H   0  0  0  0  0  0  0  0  0  0  0  0
    3.9112   -7.3123   -4.1235 H   0  0  0  0  0  0  0  0  0  0  0  0
    5.1679   -7.1742    1.8463 H   0  0  0  0  0  0  0  0  0  0  0  0
    6.8022   -6.9456    1.1791 H   0  0  0  0  0  0  0  0  0  0  0  0
    5.8579   -5.5381    1.7225 H   0  0  0  0  0  0  0  0  0  0  0  0
  1  2  1  0  0  0  0
  1 27  1  0  0  0  0
  1 28  1  0  0  0  0
  1 29  1  0  0  0  0
  2  7  2  0  0  0  0
  2  3  1  0  0  0  0
  3  4  2  0  0  0  0
  3 30  1  0  0  0  0
  4  5  1  0  0  0  0
  4 13  1  0  0  0  0
  5  6  2  0  0  0  0
  5 31  1  0  0  0  0
  6  7  1  0  0  0  0
  6 32  1  0  0  0  0
  7  8  1  0  0  0  0
  8  9  1  0  0  0  0
  9 10  1  0  0  0  0
  9 33  1  0  0  0  0
  9 34  1  0  0  0  0
 10 11  2  0  0  0  0
 10 12  1  0  0  0  0
 13 14  2  0  0  0  0
 13 15  2  0  0  0  0
 13 16  1  0  0  0  0
 16 17  1  0  0  0  0
 16 35  1  0  0  0  0
 17 18  1  0  0  0  0
 17 36  1  0  0  0  0
 18 19  2  0  0  0  0
 18 20  1  0  0  0  0
 20 24  2  0  0  0  0
 20 21  1  0  0  0  0
 21 22  2  0  0  0  0
 21 37  1  0  0  0  0
 22 23  1  0  0  0  0
 22 26  1  0  0  0  0
 23 24  1  0  0  0  0
 24 25  1  0  0  0  0
 25 38  1  0  0  0  0
 25 39  1  0  0  0  0
 25 40  1  0  0  0  0
 26 41  1  0  0  0  0
 26 42  1  0  0  0  0
 26 43  1  0  0  0  0
M  END
$$$$
ZINC13235690
 OpenBabel01252620473D

 42 43  0  0  0  0  0  0  0  0999 V2000
   -0.0184    1.5028    0.0103 C   0  0  0  0  0  0  0  0  0  0  0  0
    0.0021   -0.0041    0.0020 C   0  0  0  0  0  0  0  0  0  0  0  0
    0.0203   -0.6160    1.0489 O   0  0  0  0  0  0  0  0  0  0  0  0
    0.0001   -0.6716   -1.1688 N   0  0  0  0  0  0  0  0  0  0  0  0
   -0.0158    0.0569   -2.4451 C   0  0  0  0  0  0  0  0  0  0  0  0
    1.1768   -0.4085   -3.2898 C   0  0  0  0  0  0  0  0  0  0  0  0
    1.1909   -1.8779   -3.3131 N   0  0  0  0  0  0  0  0  0  0  0  0
    1.2068   -2.6063   -2.0368 C   0  0  0  0  0  0  0  0  0  0  0  0
    0.0199   -2.1409   -1.1921 C   0  0  0  0  0  0  0  0  0  0  0  0
    1.1889   -2.5454   -4.4839 C   0  0  0  0  0  0  0  0  0  0  0  0
    1.1754   -1.9333   -5.5309 O   0  0  0  0  0  0  0  0  0  0  0  0
    1.2035   -4.0523   -4.4922 C   0  0  0  0  0  0  0  0  0  0  0  0
    1.1969   -4.6477   -6.2057 S   0  0  0  0  0  0  0  0  0  0  0  0
    1.2151   -6.4025   -6.0473 C   0  0  0  0  0  0  0  0  0  0  0  0
    1.2146   -7.1598   -7.1376 N   0  0  0  0  0  0  0  0  0  0  0  0
    1.2284   -8.4824   -7.0121 C   0  0  0  0  0  0  0  0  0  0  0  0
    1.2287   -9.2805   -8.1073 O   0  5  0  0  0  0  0  0  0  0  0  0
    1.2430   -9.0335   -5.7301 C   0  0  0  0  0  0  0  0  0  0  0  0
    1.2428   -8.2297   -4.6833 N   0  0  0  0  0  0  0  0  0  0  0  0
    1.2347   -6.9521   -4.8390 N   0  0  0  0  0  0  0  0  0  0  0  0
    1.2584  -10.5287   -5.5431 C   0  0  0  0  0  0  0  0  0  0  0  0
    2.7060  -11.0213   -5.4905 C   0  0  0  0  0  0  0  0  0  0  0  0
    2.7214  -12.5165   -5.3036 C   0  0  0  0  0  0  0  0  0  0  0  0
    1.6719  -13.1313   -5.2201 O   0  0  0  0  0  0  0  0  0  0  0  0
    3.7835  -13.1115   -5.2357 O   0  0  0  0  0  1  0  0  0  0  0  0
    1.0042    1.8801    0.0026 H   0  0  0  0  0  0  0  0  0  0  0  0
   -0.5455    1.8639   -0.8728 H   0  0  0  0  0  0  0  0  0  0  0  0
   -0.5286    1.8543    0.9071 H   0  0  0  0  0  0  0  0  0  0  0  0
   -0.9443   -0.1545   -2.9754 H   0  0  0  0  0  0  0  0  0  0  0  0
    0.0651    1.1273   -2.2564 H   0  0  0  0  0  0  0  0  0  0  0  0
    1.0761   -0.0274   -4.3061 H   0  0  0  0  0  0  0  0  0  0  0  0
    2.1032   -0.0407   -2.8487 H   0  0  0  0  0  0  0  0  0  0  0  0
    1.1259   -3.6768   -2.2255 H   0  0  0  0  0  0  0  0  0  0  0  0
    2.1353   -2.3950   -1.5065 H   0  0  0  0  0  0  0  0  0  0  0  0
    0.1243   -2.5216   -0.1761 H   0  0  0  0  0  0  0  0  0  0  0  0
   -0.9061   -2.5123   -1.6312 H   0  0  0  0  0  0  0  0  0  0  0  0
    2.1007   -4.4097   -3.9868 H   0  0  0  0  0  0  0  0  0  0  0  0
    0.3209   -4.4270   -3.9739 H   0  0  0  0  0  0  0  0  0  0  0  0
    0.7538  -10.7836   -4.6112 H   0  0  0  0  0  0  0  0  0  0  0  0
    0.7428  -11.0045   -6.3773 H   0  0  0  0  0  0  0  0  0  0  0  0
    3.2106  -10.7664   -6.4225 H   0  0  0  0  0  0  0  0  0  0  0  0
    3.2216  -10.5455   -4.6563 H   0  0  0  0  0  0  0  0  0  0  0  0
  1  2  1  0  0  0  0
  1 26  1  0  0  0  0
  1 27  1  0  0  0  0
  1 28  1  0  0  0  0
  2  3  2  0  0  0  0
  2  4  1  0  0  0  0
  4  9  1  0  0  0  0
  4  5  1  0  0  0  0
  5  6  1  0  0  0  0
  5 29  1  0  0  0  0
  5 30  1  0  0  0  0
  6  7  1  0  0  0  0
  6 31  1  0  0  0  0
  6 32  1  0  0  0  0
  7  8  1  0  0  0  0
  7 10  1  0  0  0  0
  8  9  1  0  0  0  0
  8 33  1  0  0  0  0
  8 34  1  0  0  0  0
  9 35  1  0  0  0  0
  9 36  1  0  0  0  0
 10 11  2  0  0  0  0
 10 12  1  0  0  0  0
 12 13  1  0  0  0  0
 12 37  1  0  0  0  0
 12 38  1  0  0  0  0
 13 14  1  0  0  0  0
 14 15  2  0  0  0  0
 14 20  1  0  0  0  0
 15 16  1  0  0  0  0
 16 17  1  0  0  0  0
 16 18  2  0  0  0  0
 18 19  1  0  0  0  0
 18 21  1  0  0  0  0
 19 20  2  0  0  0  0
 21 22  1  0  0  0  0
 21 39  1  0  0  0  0
 21 40  1  0  0  0  0
 22 23  1  0  0  0  0
 22 41  1  0  0  0  0
 22 42  1  0  0  0  0
 23 24  2  0  0  0  0
 23 25  1  0  0  0  0
M  CHG  1  17  -1
M  END
$$$$
ZINC13026016
 OpenBabel01252620473D

 40 41  0  0  0  0  0  0  0  0999 V2000
  -10.4972   13.9884    0.1282 C   0  0  0  0  0  0  0  0  0  0  0  0
  -10.3018   12.5366    0.1189 N   0  0  0  0  0  0  0  0  0  0  0  0
   -9.0534   12.0247    0.1107 C   0  0  0  0  0  0  0  0  0  0  0  0
   -8.0849   12.7611    0.1105 O   0  0  0  0  0  0  0  0  0  0  0  0
   -8.8794   10.5626    0.1016 C   0  0  0  0  0  0  0  0  0  0  0  0
   -9.9420    9.7988    0.0962 N   0  0  0  0  0  0  0  0  0  0  0  0
  -11.2160   10.3789    0.1104 N   0  0  0  0  0  0  0  0  0  0  0  0
  -11.3677   11.7148    0.1191 C   0  0  0  0  0  0  0  0  0  0  0  0
  -12.4878   12.1890    0.1270 O   0  0  0  0  0  0  0  0  0  0  0  0
  -12.4012    9.5178    0.1104 C   0  0  0  0  0  0  0  0  0  0  0  0
   -7.2667    9.8530    0.0907 S   0  0  0  0  0  0  0  0  0  0  0  0
   -7.5739    8.0652    0.0817 C   0  0  0  0  0  0  0  0  0  0  0  0
   -6.2588    7.3295    0.0720 C   0  0  0  0  0  0  0  0  0  0  0  0
   -5.2166    7.9502    0.0712 O   0  0  0  0  0  0  0  0  0  0  0  0
   -6.2405    5.9819    0.0641 N   0  0  0  0  0  0  0  0  0  0  0  0
   -5.0178    5.2980    0.0551 N   0  0  0  0  0  0  0  0  0  0  0  0
   -5.0002    3.9997    0.0475 C   0  0  0  0  0  0  0  0  0  0  0  0
   -3.7145    3.2805    0.0380 C   0  0  0  0  0  0  0  0  0  0  0  0
   -3.6954    1.8819    0.0298 C   0  0  0  0  0  0  0  0  0  0  0  0
   -2.5033    1.2154    0.0205 C   0  0  0  0  0  0  0  0  0  0  0  0
   -1.3020    1.9310    0.0187 C   0  0  0  0  0  0  0  0  0  0  0  0
   -1.3208    3.3291    0.0323 C   0  0  0  0  0  0  0  0  0  0  0  0
   -2.5127    3.9962    0.0366 C   0  0  0  0  0  0  0  0  0  0  0  0
   -0.0144    1.2108    0.0087 C   0  0  0  0  0  0  0  0  0  0  0  0
    0.0021   -0.0041    0.0020 O   0  0  0  0  0  0  0  0  0  0  0  0
   -9.5272   14.4856    0.1269 H   0  0  0  0  0  0  0  0  0  0  0  0
  -11.0586   14.2851   -0.7578 H   0  0  0  0  0  0  0  0  0  0  0  0
  -11.0511   14.2748    1.0221 H   0  0  0  0  0  0  0  0  0  0  0  0
  -12.6997    9.3105   -0.9172 H   0  0  0  0  0  0  0  0  0  0  0  0
  -12.1698    8.5811    0.6175 H   0  0  0  0  0  0  0  0  0  0  0  0
  -13.2160   10.0211    0.6309 H   0  0  0  0  0  0  0  0  0  0  0  0
   -8.1456    7.7993   -0.8075 H   0  0  0  0  0  0  0  0  0  0  0  0
   -8.1382    7.7890    0.9725 H   0  0  0  0  0  0  0  0  0  0  0  0
   -7.0739    5.4855    0.0647 H   0  0  0  0  0  0  0  0  0  0  0  0
   -5.9281    3.4470    0.0482 H   0  0  0  0  0  0  0  0  0  0  0  0
   -4.6232    1.3291    0.0312 H   0  0  0  0  0  0  0  0  0  0  0  0
   -2.4885    0.1355    0.0142 H   0  0  0  0  0  0  0  0  0  0  0  0
   -0.3928    3.8816    0.0354 H   0  0  0  0  0  0  0  0  0  0  0  0
   -2.5272    5.0761    0.0429 H   0  0  0  0  0  0  0  0  0  0  0  0
    1.1433    1.9003    0.0013 O   0  0  0  0  0  1  0  0  0  0  0  0
  1  2  1  0  0  0  0
  1 26  1  0  0  0  0
  1 27  1  0  0  0  0
  1 28  1  0  0  0  0
  2  8  1  0  0  0  0
  2  3  1  0  0  0  0
  3  4  2  0  0  0  0
  3  5  1  0  0  0  0
  5  6  2  0  0  0  0
  5 11  1  0  0  0  0
  6  7  1  0  0  0  0
  7  8  1  0  0  0  0
  7 10  1  0  0  0  0
  8  9  2  0  0  0  0
 10 29  1  0  0  0  0
 10 30  1  0  0  0  0
 10 31  1  0  0  0  0
 11 12  1  0  0  0  0
 12 13  1  0  0  0  0
 12 32  1  0  0  0  0
 12 33  1  0  0  0  0
 13 14  2  0  0  0  0
 13 15  1  0  0  0  0
 15 16  1  0  0  0  0
 15 34  1  0  0  0  0
 16 17  2  0  0  0  0
 17 18  1  0  0  0  0
 17 35  1  0  0  0  0
 18 23  2  0  0  0  0
 18 19  1  0  0  0  0
 19 20  2  0  0  0  0
 19 36  1  0  0  0  0
 20 21  1  0  0  0  0
 20 37  1  0  0  0  0
 21 22  2  0  0  0  0
 21 24  1  0  0  0  0
 22 23  1  0  0  0  0
 22 38  1  0  0  0  0
 23 39  1  0  0  0  0
 24 25  2  0  0  0  0
 24 40  1  0  0  0  0
M  END
$$$$
ZINC40083371
 OpenBabel01252620473D

 61 63  0  0  1  0  0  0  0  0999 V2000
    0.3873    0.7291    0.4418 C   0  0  0  0  0  0  0  0  0  0  0  0
    0.0935   -0.7525    0.1974 C   0  0  0  0  0  0  0  0  0  0  0  0
    0.8042   -1.2097   -1.0780 C   0  0  0  0  0  0  0  0  0  0  0  0
    0.5105   -2.6912   -1.3223 C   0  0  0  0  0  0  0  0  0  0  0  0
    1.1910   -3.1291   -2.5436 N   0  0  0  0  0  0  0  0  0  0  0  0
    0.6385   -3.0870   -3.9026 C   0  0  1  0  0  0  0  0  0  0  0  0
    0.4063   -2.0591   -4.1811 H   0  0  0  0  0  0  0  0  0  0  0  0
    1.7111   -3.6416   -4.8107 C   0  0  0  0  0  0  0  0  0  0  0  0
    2.7633   -3.9617   -4.0222 C   0  0  0  0  0  0  0  0  0  0  0  0
    2.4352   -3.6356   -2.6185 C   0  0  0  0  0  0  0  0  0  0  0  0
    3.1781   -3.8028   -1.6718 O   0  0  0  0  0  0  0  0  0  0  0  0
    3.9318   -4.4919   -4.4512 O   0  5  0  0  0  0  0  0  0  0  0  0
    1.6281   -3.8020   -6.2659 C   0  0  0  0  0  0  0  0  0  0  0  0
    0.6025   -3.5106   -6.8527 O   0  0  0  0  0  0  0  0  0  0  0  0
    2.7884   -4.3171   -7.0191 C   0  0  0  0  0  0  0  0  0  0  0  0
    2.7860   -5.6307   -7.4987 C   0  0  0  0  0  0  0  0  0  0  0  0
    3.8700   -6.1070   -8.2005 C   0  0  0  0  0  0  0  0  0  0  0  0
    4.9668   -5.2840   -8.4324 C   0  0  0  0  0  0  0  0  0  0  0  0
    4.9733   -3.9775   -7.9573 C   0  0  0  0  0  0  0  0  0  0  0  0
    3.8905   -3.4912   -7.2598 C   0  0  0  0  0  0  0  0  0  0  0  0
    3.8960   -2.0728   -6.7506 C   0  0  0  0  0  0  0  0  0  0  0  0
    6.0339   -5.7578   -9.1240 O   0  0  0  0  0  0  0  0  0  0  0  0
    6.0155   -7.1424   -9.4768 C   0  0  0  0  0  0  0  0  0  0  0  0
    7.3196   -7.5101  -10.1364 C   0  0  0  0  0  0  0  0  0  0  0  0
    7.9397   -8.6118   -9.7929 C   0  0  0  0  0  0  0  0  0  0  0  0
   -0.6023   -3.9383   -3.9841 C   0  0  0  0  0  0  0  0  0  0  0  0
   -0.5982   -5.2159   -3.4559 C   0  0  0  0  0  0  0  0  0  0  0  0
   -1.7339   -6.0008   -3.5281 C   0  0  0  0  0  0  0  0  0  0  0  0
   -2.8799   -5.5072   -4.1306 C   0  0  0  0  0  0  0  0  0  0  0  0
   -2.8843   -4.2211   -4.6619 C   0  0  0  0  0  0  0  0  0  0  0  0
   -1.7440   -3.4379   -4.5818 C   0  0  0  0  0  0  0  0  0  0  0  0
   -4.0066   -3.7322   -5.2541 O   0  0  0  0  0  0  0  0  0  0  0  0
   -3.9079   -2.4462   -5.8694 C   0  0  0  0  0  0  0  0  0  0  0  0
   -3.9979   -6.2782   -4.2029 O   0  0  0  0  0  0  0  0  0  0  0  0
    1.4620    0.8728    0.5532 H   0  0  0  0  0  0  0  0  0  0  0  0
    0.0282    1.3150   -0.4043 H   0  0  0  0  0  0  0  0  0  0  0  0
   -0.1190    1.0548    1.3504 H   0  0  0  0  0  0  0  0  0  0  0  0
    0.4526   -1.3384    1.0435 H   0  0  0  0  0  0  0  0  0  0  0  0
   -0.9812   -0.8962    0.0859 H   0  0  0  0  0  0  0  0  0  0  0  0
    0.4452   -0.6238   -1.9240 H   0  0  0  0  0  0  0  0  0  0  0  0
    1.8790   -1.0660   -0.9665 H   0  0  0  0  0  0  0  0  0  0  0  0
    0.8696   -3.2772   -0.4763 H   0  0  0  0  0  0  0  0  0  0  0  0
   -0.5643   -2.8350   -1.4338 H   0  0  0  0  0  0  0  0  0  0  0  0
    1.9349   -6.2706   -7.3185 H   0  0  0  0  0  0  0  0  0  0  0  0
    3.8689   -7.1213   -8.5713 H   0  0  0  0  0  0  0  0  0  0  0  0
    5.8273   -3.3418   -8.1392 H   0  0  0  0  0  0  0  0  0  0  0  0
    4.3868   -2.0378   -5.7780 H   0  0  0  0  0  0  0  0  0  0  0  0
    4.4351   -1.4368   -7.4527 H   0  0  0  0  0  0  0  0  0  0  0  0
    2.8701   -1.7179   -6.6528 H   0  0  0  0  0  0  0  0  0  0  0  0
    5.8803   -7.7445   -8.5783 H   0  0  0  0  0  0  0  0  0  0  0  0
    5.1934   -7.3305  -10.1673 H   0  0  0  0  0  0  0  0  0  0  0  0
    7.7431   -6.8654  -10.8923 H   0  0  0  0  0  0  0  0  0  0  0  0
    8.8743   -8.8753  -10.2656 H   0  0  0  0  0  0  0  0  0  0  0  0
    7.5162   -9.2565   -9.0370 H   0  0  0  0  0  0  0  0  0  0  0  0
    0.2944   -5.6018   -2.9860 H   0  0  0  0  0  0  0  0  0  0  0  0
   -1.7278   -6.9988   -3.1153 H   0  0  0  0  0  0  0  0  0  0  0  0
   -1.7459   -2.4380   -4.9900 H   0  0  0  0  0  0  0  0  0  0  0  0
   -3.1789   -2.4857   -6.6787 H   0  0  0  0  0  0  0  0  0  0  0  0
   -4.8802   -2.1594   -6.2699 H   0  0  0  0  0  0  0  0  0  0  0  0
   -3.5892   -1.7126   -5.1288 H   0  0  0  0  0  0  0  0  0  0  0  0
   -4.5922   -6.1812   -3.4463 H   0  0  0  0  0  0  0  0  0  0  0  0
  1  2  1  0  0  0  0
  1 35  1  0  0  0  0
  1 36  1  0  0  0  0
  1 37  1  0  0  0  0
  2  3  1  0  0  0  0
  2 38  1  0  0  0  0
  2 39  1  0  0  0  0
  3  4  1  0  0  0  0
  3 40  1  0  0  0  0
  3 41  1  0  0  0  0
  4  5  1  0  0  0  0
  4 42  1  0  0  0  0
  4 43  1  0  0  0  0
  5 10  1  0  0  0  0
  5  6  1  0  0  0  0
  6  7  1  6  0  0  0
  6  8  1  0  0  0  0
  6 26  1  0  0  0  0
  8  9  2  0  0  0  0
  8 13  1  0  0  0  0
  9 10  1  0  0  0  0
  9 12  1  0  0  0  0
 10 11  2  0  0  0  0
 13 14  2  0  0  0  0
 13 15  1  0  0  0  0
 15 20  2  0  0  0  0
 15 16  1  0  0  0  0
 16 17  2  0  0  0  0
 16 44  1  0  0  0  0
 17 18  1  0  0  0  0
 17 45  1  0  0  0  0
 18 19  2  0  0  0  0
 18 22  1  0  0  0  0
 19 20  1  0  0  0  0
 19 46  1  0  0  0  0
 20 21  1  0  0  0  0
 21 47  1  0  0  0  0
 21 48  1  0  0  0  0
 21 49  1  0  0  0  0
 22 23  1  0  0  0  0
 23 24  1  0  0  0  0
 23 50  1  0  0  0  0
 23 51  1  0  0  0  0
 24 25  2  0  0  0  0
 24 52  1  0  0  0  0
 25 53  1  0  0  0  0
 25 54  1  0  0  0  0
 26 31  2  0  0  0  0
 26 27  1  0  0  0  0
 27 28  2  0  0  0  0
 27 55  1  0  0  0  0
 28 29  1  0  0  0  0
 28 56  1  0  0  0  0
 29 30  2  0  0  0  0
 29 34  1  0  0  0  0
 30 31  1  0  0  0  0
 30 32  1  0  0  0  0
 31 57  1  0  0  0  0
 32 33  1  0  0  0  0
 33 58  1  0  0  0  0
 33 59  1  0  0  0  0
 33 60  1  0  0  0  0
 34 61  1  0  0  0  0
M  CHG  1  12  -1
M  END
$$$$
ZINC54052328
 OpenBabel01252620473D

 33 34  0  0  1  0  0  0  0  0999 V2000
   -1.4186    1.3689   -0.0989 C   0  0  0  0  0  0  0  0  0  0  0  0
   -1.3400   -0.1358   -0.1232 C   0  0  0  0  0  0  0  0  0  0  0  0
   -1.0488   -0.9344   -1.2767 C   0  0  0  0  0  0  0  0  0  0  0  0
   -0.7587   -0.7662   -2.6400 C   0  0  0  0  0  0  0  0  0  0  0  0
   -0.5344   -1.8598   -3.4218 C   0  0  0  0  0  0  0  0  0  0  0  0
   -0.7209   -3.2096   -2.2693 S   0  0  0  0  0  0  0  0  0  0  0  0
   -1.0850   -2.2592   -0.8164 C   0  0  0  0  0  0  0  0  0  0  0  0
   -1.3737   -2.2503    0.4985 N   0  0  0  0  0  0  0  0  0  0  0  0
   -1.5200   -0.9162    0.8993 N   0  0  0  0  0  0  0  0  0  0  0  0
   -1.5051   -3.4281    1.3597 C   0  0  0  0  0  0  0  0  0  0  0  0
   -0.2192   -1.9139   -4.8524 C   0  0  0  0  0  0  0  0  0  0  0  0
   -0.2644   -0.9000   -5.5242 O   0  0  0  0  0  0  0  0  0  0  0  0
    0.1205   -3.0863   -5.4238 N   0  0  0  0  0  0  0  0  0  0  0  0
    0.1415   -4.3126   -4.6226 C   0  0  0  0  0  0  0  0  0  0  0  0
    0.4688   -3.1343   -6.8459 C   0  0  1  0  0  0  0  0  0  0  0  0
    0.3971   -2.1334   -7.2716 H   0  0  0  0  0  0  0  0  0  0  0  0
    1.8991   -3.6542   -7.0034 C   0  0  0  0  0  0  0  0  0  0  0  0
   -0.4826   -4.0554   -7.5653 C   0  0  0  0  0  0  0  0  0  0  0  0
   -1.3694   -4.6195   -6.9473 O   0  0  0  0  0  0  0  0  0  0  0  0
   -0.3655   -4.2366   -8.7653 O   0  0  0  0  0  1  0  0  0  0  0  0
   -0.4337    1.7807    0.1215 H   0  0  0  0  0  0  0  0  0  0  0  0
   -1.7547    1.7309   -1.0705 H   0  0  0  0  0  0  0  0  0  0  0  0
   -2.1242    1.6836    0.6700 H   0  0  0  0  0  0  0  0  0  0  0  0
   -0.7139    0.2247   -3.0671 H   0  0  0  0  0  0  0  0  0  0  0  0
   -0.5350   -3.6713    1.7932 H   0  0  0  0  0  0  0  0  0  0  0  0
   -2.2170   -3.2171    2.1577 H   0  0  0  0  0  0  0  0  0  0  0  0
   -1.8611   -4.2723    0.7691 H   0  0  0  0  0  0  0  0  0  0  0  0
   -0.8646   -4.7284   -4.5683 H   0  0  0  0  0  0  0  0  0  0  0  0
    0.8099   -5.0381   -5.0863 H   0  0  0  0  0  0  0  0  0  0  0  0
    0.4949   -4.0838   -3.6172 H   0  0  0  0  0  0  0  0  0  0  0  0
    1.9708   -4.6551   -6.5778 H   0  0  0  0  0  0  0  0  0  0  0  0
    2.1583   -3.6900   -8.0616 H   0  0  0  0  0  0  0  0  0  0  0  0
    2.5873   -2.9880   -6.4831 H   0  0  0  0  0  0  0  0  0  0  0  0
  1  2  1  0  0  0  0
  1 21  1  0  0  0  0
  1 22  1  0  0  0  0
  1 23  1  0  0  0  0
  2  9  2  0  0  0  0
  2  3  1  0  0  0  0
  3  7  2  0  0  0  0
  3  4  1  0  0  0  0
  4  5  2  0  0  0  0
  4 24  1  0  0  0  0
  5  6  1  0  0  0  0
  5 11  1  0  0  0  0
  6  7  1  0  0  0  0
  7  8  1  0  0  0  0
  8  9  1  0  0  0  0
  8 10  1  0  0  0  0
 10 25  1  0  0  0  0
 10 26  1  0  0  0  0
 10 27  1  0  0  0  0
 11 12  2  0  0  0  0
 11 13  1  0  0  0  0
 13 14  1  0  0  0  0
 13 15  1  0  0  0  0
 14 28  1  0  0  0  0
 14 29  1  0  0  0  0
 14 30  1  0  0  0  0
 15 16  1  6  0  0  0
 15 17  1  0  0  0  0
 15 18  1  0  0  0  0
 17 31  1  0  0  0  0
 17 32  1  0  0  0  0
 17 33  1  0  0  0  0
 18 19  2  0  0  0  0
 18 20  1  0  0  0  0
M  END
$$$$
ZINC13440397
 OpenBabel01252620473D

 43 44  0  0  0  0  0  0  0  0999 V2000
   -5.4858   -2.5923    5.4377 C   0  0  0  0  0  0  0  0  0  0  0  0
   -6.0536   -2.9351    4.3081 C   0  0  0  0  0  0  0  0  0  0  0  0
   -5.5068   -2.4179    3.0025 C   0  0  0  0  0  0  0  0  0  0  0  0
   -5.2093   -3.5461    2.1165 N   0  0  0  0  0  0  0  0  0  0  0  0
   -4.9519   -3.2852    0.5016 S   0  0  0  0  0  0  0  0  0  0  0  0
   -6.0206   -2.4663    0.0470 O   0  0  0  0  0  0  0  0  0  0  0  0
   -4.6652   -4.5524   -0.0739 O   0  0  0  0  0  0  0  0  0  0  0  0
   -3.4832   -2.3226    0.3570 C   0  0  0  0  0  0  0  0  0  0  0  0
   -2.2561   -2.9515    0.2422 C   0  0  0  0  0  0  0  0  0  0  0  0
   -1.1023   -2.2038    0.1282 C   0  0  0  0  0  0  0  0  0  0  0  0
   -1.1749   -0.8097    0.1293 C   0  0  0  0  0  0  0  0  0  0  0  0
   -2.4155   -0.1816    0.2512 C   0  0  0  0  0  0  0  0  0  0  0  0
   -3.5621   -0.9412    0.3583 C   0  0  0  0  0  0  0  0  0  0  0  0
    0.0572   -0.0022    0.0080 C   0  0  0  0  0  0  0  0  0  0  0  0
    1.1368   -0.5519   -0.0929 O   0  0  0  0  0  0  0  0  0  0  0  0
   -0.0162    1.3436    0.0094 N   0  0  0  0  0  0  0  0  0  0  0  0
    1.1549    2.1077   -0.0075 C   0  0  0  0  0  0  0  0  0  0  0  0
    1.2086    3.3143    0.6785 C   0  0  0  0  0  0  0  0  0  0  0  0
    2.3687    4.0635    0.6649 C   0  0  0  0  0  0  0  0  0  0  0  0
    3.4721    3.6195   -0.0405 C   0  0  0  0  0  0  0  0  0  0  0  0
    3.4199    2.4216   -0.7295 C   0  0  0  0  0  0  0  0  0  0  0  0
    2.2650    1.6646   -0.7149 C   0  0  0  0  0  0  0  0  0  0  0  0
    4.7344    4.4425   -0.0578 C   0  0  0  0  0  0  0  0  0  0  0  0
    4.6927    5.4018   -1.2193 C   0  0  0  0  0  0  0  0  0  0  0  0
    3.7361    5.4157   -1.9573 O   0  0  0  0  0  0  0  0  0  0  0  0
   -4.6258   -1.9390    5.4334 H   0  0  0  0  0  0  0  0  0  0  0  0
   -5.8777   -2.9629    6.3734 H   0  0  0  0  0  0  0  0  0  0  0  0
   -6.9137   -3.5883    4.3124 H   0  0  0  0  0  0  0  0  0  0  0  0
   -4.5941   -1.8522    3.1894 H   0  0  0  0  0  0  0  0  0  0  0  0
   -6.2455   -1.7701    2.5303 H   0  0  0  0  0  0  0  0  0  0  0  0
   -5.1631   -4.4459    2.4758 H   0  0  0  0  0  0  0  0  0  0  0  0
   -2.2014   -4.0301    0.2415 H   0  0  0  0  0  0  0  0  0  0  0  0
   -0.1452   -2.6958    0.0380 H   0  0  0  0  0  0  0  0  0  0  0  0
   -2.4781    0.8965    0.2569 H   0  0  0  0  0  0  0  0  0  0  0  0
   -4.5231   -0.4566    0.4479 H   0  0  0  0  0  0  0  0  0  0  0  0
   -0.8814    1.7821    0.0181 H   0  0  0  0  0  0  0  0  0  0  0  0
    0.3456    3.6638    1.2258 H   0  0  0  0  0  0  0  0  0  0  0  0
    2.4128    4.9993    1.2023 H   0  0  0  0  0  0  0  0  0  0  0  0
    4.2835    2.0776   -1.2794 H   0  0  0  0  0  0  0  0  0  0  0  0
    2.2251    0.7288   -1.2527 H   0  0  0  0  0  0  0  0  0  0  0  0
    4.8156    5.0029    0.8736 H   0  0  0  0  0  0  0  0  0  0  0  0
    5.5964    3.7834   -0.1616 H   0  0  0  0  0  0  0  0  0  0  0  0
    5.7183    6.2407   -1.4340 O   0  0  0  0  0  1  0  0  0  0  0  0
  1  2  2  0  0  0  0
  1 26  1  0  0  0  0
  1 27  1  0  0  0  0
  2  3  1  0  0  0  0
  2 28  1  0  0  0  0
  3  4  1  0  0  0  0
  3 29  1  0  0  0  0
  3 30  1  0  0  0  0
  4  5  1  0  0  0  0
  4 31  1  0  0  0  0
  5  6  2  0  0  0  0
  5  7  2  0  0  0  0
  5  8  1  0  0  0  0
  8 13  2  0  0  0  0
  8  9  1  0  0  0  0
  9 10  2  0  0  0  0
  9 32  1  0  0  0  0
 10 11  1  0  0  0  0
 10 33  1  0  0  0  0
 11 12  2  0  0  0  0
 11 14  1  0  0  0  0
 12 13  1  0  0  0  0
 12 34  1  0  0  0  0
 13 35  1  0  0  0  0
 14 15  2  0  0  0  0
 14 16  1  0  0  0  0
 16 17  1  0  0  0  0
 16 36  1  0  0  0  0
 17 22  2  0  0  0  0
 17 18  1  0  0  0  0
 18 19  2  0  0  0  0
 18 37  1  0  0  0  0
 19 20  1  0  0  0  0
 19 38  1  0  0  0  0
 20 21  2  0  0  0  0
 20 23  1  0  0  0  0
 21 22  1  0  0  0  0
 21 39  1  0  0  0  0
 22 40  1  0  0  0  0
 23 24  1  0  0  0  0
 23 41  1  0  0  0  0
 23 42  1  0  0  0  0
 24 25  2  0  0  0  0
 24 43  1  0  0  0  0
M  END
$$$$
ZINC13203887
 OpenBabel01252620473D

 50 53  0  0  0  0  0  0  0  0999 V2000
    7.6464   16.5763   -4.6163 C   0  0  0  0  0  0  0  0  0  0  0  0
    6.1424   16.5291   -4.6988 C   0  0  0  0  0  0  0  0  0  0  0  0
    5.4566   17.5107   -5.3873 C   0  0  0  0  0  0  0  0  0  0  0  0
    4.0768   17.4676   -5.4643 C   0  0  0  0  0  0  0  0  0  0  0  0
    3.3788   16.4424   -4.8522 C   0  0  0  0  0  0  0  0  0  0  0  0
    4.0589   15.4552   -4.1668 C   0  0  0  0  0  0  0  0  0  0  0  0
    5.4446   15.4985   -4.0832 C   0  0  0  0  0  0  0  0  0  0  0  0
    6.1363   14.5026   -3.3850 N   0  0  0  0  0  0  0  0  0  0  0  0
    5.5185   13.8135   -2.4053 C   0  0  0  0  0  0  0  0  0  0  0  0
    4.3975   14.1227   -2.0605 O   0  0  0  0  0  0  0  0  0  0  0  0
    6.2204   12.6588   -1.7382 C   0  0  0  0  0  0  0  0  0  0  0  0
    5.3201   12.0636   -0.6863 C   0  0  0  0  0  0  0  0  0  0  0  0
    4.4374   11.0991   -0.8060 N   0  0  0  0  0  0  0  0  0  0  0  0
    3.7234   10.6901    0.2218 C   0  0  0  0  0  0  0  0  0  0  0  0
    3.9146   11.2950    1.4219 C   0  0  0  0  0  0  0  0  0  0  0  0
    5.1851   12.4770    0.9949 S   0  0  0  0  0  0  0  0  0  0  0  0
    2.7140    9.5816    0.0683 C   0  0  0  0  0  0  0  0  0  0  0  0
    3.5135    7.9893    0.3867 S   0  0  0  0  0  0  0  0  0  0  0  0
    2.1449    6.9061    0.1451 C   0  0  0  0  0  0  0  0  0  0  0  0
    0.9207    7.2575   -0.1757 N   0  0  0  0  0  0  0  0  0  0  0  0
    0.1735    6.2170   -0.2770 N   0  0  0  0  0  0  0  0  0  0  0  0
    0.8737    5.1347   -0.0178 C   0  0  0  0  0  0  0  0  0  0  0  0
    2.1599    5.5434    0.2572 N   0  0  0  0  0  0  0  0  0  0  0  0
    3.3046    4.6955    0.5991 C   0  0  0  0  0  0  0  0  0  0  0  0
    4.0268    4.2944   -0.6614 C   0  0  0  0  0  0  0  0  0  0  0  0
    3.6264    4.6776   -1.7350 O   0  0  0  0  0  0  0  0  0  0  0  0
    0.3786    3.7487   -0.0263 C   0  0  0  0  0  0  0  0  0  0  0  0
   -0.9155    3.2928   -0.0156 C   0  0  0  0  0  0  0  0  0  0  0  0
   -1.1373    1.9341   -0.0338 C   0  0  0  0  0  0  0  0  0  0  0  0
   -0.0738    1.0895   -0.0500 C   0  0  0  0  0  0  0  0  0  0  0  0
    1.3053    2.2230   -0.0544 S   0  0  0  0  0  0  0  0  0  0  0  0
    8.0737   16.0298   -5.4571 H   0  0  0  0  0  0  0  0  0  0  0  0
    7.9797   17.6135   -4.6501 H   0  0  0  0  0  0  0  0  0  0  0  0
    7.9735   16.1197   -3.6822 H   0  0  0  0  0  0  0  0  0  0  0  0
    5.9987   18.3126   -5.8664 H   0  0  0  0  0  0  0  0  0  0  0  0
    3.5429   18.2359   -6.0038 H   0  0  0  0  0  0  0  0  0  0  0  0
    2.3010   16.4114   -4.9144 H   0  0  0  0  0  0  0  0  0  0  0  0
    3.5136   14.6524   -3.6929 H   0  0  0  0  0  0  0  0  0  0  0  0
    7.0606   14.3081   -3.6061 H   0  0  0  0  0  0  0  0  0  0  0  0
    7.1396   13.0130   -1.2716 H   0  0  0  0  0  0  0  0  0  0  0  0
    6.4600   11.8999   -2.4830 H   0  0  0  0  0  0  0  0  0  0  0  0
    3.4336   11.1117    2.3714 H   0  0  0  0  0  0  0  0  0  0  0  0
    2.3150    9.5915   -0.9460 H   0  0  0  0  0  0  0  0  0  0  0  0
    1.9015    9.7289    0.7798 H   0  0  0  0  0  0  0  0  0  0  0  0
    3.9848    5.2475    1.2476 H   0  0  0  0  0  0  0  0  0  0  0  0
    2.9537    3.8026    1.1165 H   0  0  0  0  0  0  0  0  0  0  0  0
   -1.7435    3.9859    0.0021 H   0  0  0  0  0  0  0  0  0  0  0  0
   -2.1446    1.5446   -0.0316 H   0  0  0  0  0  0  0  0  0  0  0  0
   -0.0648    0.0096   -0.0620 H   0  0  0  0  0  0  0  0  0  0  0  0
    5.1149    3.5116   -0.5913 O   0  0  0  0  0  1  0  0  0  0  0  0
  1  2  1  0  0  0  0
  1 32  1  0  0  0  0
  1 33  1  0  0  0  0
  1 34  1  0  0  0  0
  2  7  2  0  0  0  0
  2  3  1  0  0  0  0
  3  4  2  0  0  0  0
  3 35  1  0  0  0  0
  4  5  1  0  0  0  0
  4 36  1  0  0  0  0
  5  6  2  0  0  0  0
  5 37  1  0  0  0  0
  6  7  1  0  0  0  0
  6 38  1  0  0  0  0
  7  8  1  0  0  0  0
  8  9  1  0  0  0  0
  8 39  1  0  0  0  0
  9 10  2  0  0  0  0
  9 11  1  0  0  0  0
 11 12  1  0  0  0  0
 11 40  1  0  0  0  0
 11 41  1  0  0  0  0
 12 16  1  0  0  0  0
 12 13  2  0  0  0  0
 13 14  1  0  0  0  0
 14 15  2  0  0  0  0
 14 17  1  0  0  0  0
 15 16  1  0  0  0  0
 15 42  1  0  0  0  0
 17 18  1  0  0  0  0
 17 43  1  0  0  0  0
 17 44  1  0  0  0  0
 18 19  1  0  0  0  0
 19 23  1  0  0  0  0
 19 20  2  0  0  0  0
 20 21  1  0  0  0  0
 21 22  2  0  0  0  0
 22 23  1  0  0  0  0
 22 27  1  0  0  0  0
 23 24  1  0  0  0  0
 24 25  1  0  0  0  0
 24 45  1  0  0  0  0
 24 46  1  0  0  0  0
 25 26  2  0  0  0  0
 25 50  1  0  0  0  0
 27 31  1  0  0  0  0
 27 28  2  0  0  0  0
 28 29  1  0  0  0  0
 28 47  1  0  0  0  0
 29 30  2  0  0  0  0
 29 48  1  0  0  0  0
 30 31  1  0  0  0  0
 30 49  1  0  0  0  0
M  END
$$$$
ZINC54310381
 OpenBabel01252620473D

 38 38  0  0  1  0  0  0  0  0999 V2000
   -0.0187    1.5258    0.0104 C   0  0  0  0  0  0  0  0  0  0  0  0
    0.0021   -0.0041    0.0020 C   0  0  2  0  0  0  0  0  0  0  0  0
    0.5123   -0.3556   -0.8948 H   0  0  0  0  0  0  0  0  0  0  0  0
   -1.4333   -0.5336    0.0129 C   0  0  0  0  0  0  0  0  0  0  0  0
   -2.1054   -0.1483   -1.2305 N   0  0  0  0  0  0  0  0  0  0  0  0
   -3.3867   -0.5081   -1.4434 C   0  0  0  0  0  0  0  0  0  0  0  0
   -3.9833   -1.1509   -0.6057 O   0  0  0  0  0  0  0  0  0  0  0  0
   -4.0781   -0.1117   -2.7225 C   0  0  0  0  0  0  0  0  0  0  0  0
   -5.5134   -0.6413   -2.7116 C   0  0  0  0  0  0  0  0  0  0  0  0
   -6.1855   -0.2560   -3.9550 N   0  0  0  0  0  0  0  0  0  0  0  0
   -6.8736    0.8910   -4.1196 C   0  0  0  0  0  0  0  0  0  0  0  0
   -7.0466    1.7655   -3.2979 O   0  0  0  0  0  0  0  0  0  0  0  0
   -7.3854    0.8608   -5.5461 C   0  0  0  0  0  0  0  0  0  0  0  0
   -6.8787   -0.4199   -6.0686 N   0  0  0  0  0  0  0  0  0  0  0  0
   -6.1872   -0.9967   -5.0692 C   0  0  0  0  0  0  0  0  0  0  0  0
   -5.6293   -2.0721   -5.1664 O   0  0  0  0  0  0  0  0  0  0  0  0
   -6.8149    2.0326   -6.3476 C   0  0  0  0  0  0  0  0  0  0  0  0
   -8.9150    0.8845   -5.5698 C   0  0  0  0  0  0  0  0  0  0  0  0
    0.7309   -0.5033    1.2229 C   0  0  0  0  0  0  0  0  0  0  0  0
    0.1557   -1.2165    2.0272 O   0  0  0  0  0  0  0  0  0  0  0  0
    1.8959   -0.1939    1.4064 O   0  0  0  0  0  1  0  0  0  0  0  0
    1.0039    1.9031    0.0027 H   0  0  0  0  0  0  0  0  0  0  0  0
   -0.5459    1.8868   -0.8726 H   0  0  0  0  0  0  0  0  0  0  0  0
   -0.5289    1.8773    0.9072 H   0  0  0  0  0  0  0  0  0  0  0  0
   -1.4190   -1.6203    0.0965 H   0  0  0  0  0  0  0  0  0  0  0  0
   -1.9701   -0.1109    0.8621 H   0  0  0  0  0  0  0  0  0  0  0  0
   -1.6283    0.3658   -1.9006 H   0  0  0  0  0  0  0  0  0  0  0  0
   -4.0923    0.9749   -2.8061 H   0  0  0  0  0  0  0  0  0  0  0  0
   -3.5412   -0.5345   -3.5717 H   0  0  0  0  0  0  0  0  0  0  0  0
   -5.4992   -1.7280   -2.6280 H   0  0  0  0  0  0  0  0  0  0  0  0
   -6.0503   -0.2186   -1.8624 H   0  0  0  0  0  0  0  0  0  0  0  0
   -7.0147   -0.7765   -6.9604 H   0  0  0  0  0  0  0  0  0  0  0  0
   -5.7270    1.9680   -6.3613 H   0  0  0  0  0  0  0  0  0  0  0  0
   -7.1942    1.9932   -7.3687 H   0  0  0  0  0  0  0  0  0  0  0  0
   -7.1174    2.9715   -5.8837 H   0  0  0  0  0  0  0  0  0  0  0  0
   -9.2718    1.7936   -5.0858 H   0  0  0  0  0  0  0  0  0  0  0  0
   -9.2628    0.8623   -6.6026 H   0  0  0  0  0  0  0  0  0  0  0  0
   -9.3002    0.0145   -5.0379 H   0  0  0  0  0  0  0  0  0  0  0  0
  1  2  1  0  0  0  0
  1 22  1  0  0  0  0
  1 23  1  0  0  0  0
  1 24  1  0  0  0  0
  2  3  1  6  0  0  0
  2  4  1  0  0  0  0
  2 19  1  0  0  0  0
  4  5  1  0  0  0  0
  4 25  1  0  0  0  0
  4 26  1  0  0  0  0
  5  6  1  0  0  0  0
  5 27  1  0  0  0  0
  6  7  2  0  0  0  0
  6  8  1  0  0  0  0
  8  9  1  0  0  0  0
  8 28  1  0  0  0  0
  8 29  1  0  0  0  0
  9 10  1  0  0  0  0
  9 30  1  0  0  0  0
  9 31  1  0  0  0  0
 10 15  1  0  0  0  0
 10 11  1  0  0  0  0
 11 12  2  0  0  0  0
 11 13  1  0  0  0  0
 13 14  1  0  0  0  0
 13 17  1  0  0  0  0
 13 18  1  0  0  0  0
 14 15  1  0  0  0  0
 14 32  1  0  0  0  0
 15 16  2  0  0  0  0
 17 33  1  0  0  0  0
 17 34  1  0  0  0  0
 17 35  1  0  0  0  0
 18 36  1  0  0  0  0
 18 37  1  0  0  0  0
 18 38  1  0  0  0  0
 19 20  2  0  0  0  0
 19 21  1  0  0  0  0
M  END
$$$$
ZINC20349793
 OpenBabel01252620473D

 45 48  0  0  0  0  0  0  0  0999 V2000
   -7.2970   -4.9092    1.7111 C   0  0  0  0  0  0  0  0  0  0  0  0
   -6.3123   -4.6252    2.8472 C   0  0  0  0  0  0  0  0  0  0  0  0
   -5.2817   -3.6952    2.3791 N   0  0  0  0  0  0  0  0  0  0  0  0
   -4.9581   -2.5211    2.9544 C   0  0  0  0  0  0  0  0  0  0  0  0
   -3.9545   -1.9619    2.2158 C   0  0  0  0  0  0  0  0  0  0  0  0
   -3.6726   -2.8402    1.1501 C   0  0  0  0  0  0  0  0  0  0  0  0
   -4.4635   -3.8743    1.2573 N   0  0  0  0  0  0  0  0  0  0  0  0
   -2.6368   -2.6256    0.0766 C   0  0  0  0  0  0  0  0  0  0  0  0
   -3.2878   -0.6649    2.4826 C   0  0  0  0  0  0  0  0  0  0  0  0
   -3.6882    0.0986    3.5848 C   0  0  0  0  0  0  0  0  0  0  0  0
   -3.0770    1.2948    3.8354 C   0  0  0  0  0  0  0  0  0  0  0  0
   -2.0584    1.7177    2.9673 C   0  0  0  0  0  0  0  0  0  0  0  0
   -1.2300    2.8634    2.9164 C   0  0  0  0  0  0  0  0  0  0  0  0
   -0.4362    2.7548    1.8907 N   0  0  0  0  0  0  0  0  0  0  0  0
   -0.6984    1.5583    1.2133 N   0  0  0  0  0  0  0  0  0  0  0  0
   -1.7024    0.9025    1.8749 C   0  0  0  0  0  0  0  0  0  0  0  0
   -2.3257   -0.2512    1.6736 N   0  0  0  0  0  0  0  0  0  0  0  0
   -0.0127    1.0858    0.0080 C   0  0  0  0  0  0  0  0  0  0  0  0
   -0.7416    1.5850   -1.2129 C   0  0  0  0  0  0  0  0  0  0  0  0
   -1.7322    2.2656   -1.0889 O   0  0  0  0  0  0  0  0  0  0  0  0
   -0.2903    1.2736   -2.4381 O   0  0  0  0  0  1  0  0  0  0  0  0
   -1.2567    4.0128    3.8907 C   0  0  0  0  0  0  0  0  0  0  0  0
   -0.4246    5.2498    3.5469 C   0  0  0  0  0  0  0  0  0  0  0  0
    0.0273    4.3102    4.6677 C   0  0  0  0  0  0  0  0  0  0  0  0
   -3.4862    2.1389    5.0149 C   0  0  0  0  0  0  0  0  0  0  0  0
   -2.3877    2.3201    5.8621 F   0  0  0  0  0  0  0  0  0  0  0  0
   -3.9372    3.3838    4.5634 F   0  0  0  0  0  0  0  0  0  0  0  0
   -8.0708   -5.6075    2.0626 H   0  0  0  0  0  0  0  0  0  0  0  0
   -6.7585   -5.3557    0.8622 H   0  0  0  0  0  0  0  0  0  0  0  0
   -7.7696   -3.9686    1.3918 H   0  0  0  0  0  0  0  0  0  0  0  0
   -6.8508   -4.1787    3.6961 H   0  0  0  0  0  0  0  0  0  0  0  0
   -5.8397   -5.5658    3.1666 H   0  0  0  0  0  0  0  0  0  0  0  0
   -5.4101   -2.0985    3.8395 H   0  0  0  0  0  0  0  0  0  0  0  0
   -2.6457   -3.4790   -0.6174 H   0  0  0  0  0  0  0  0  0  0  0  0
   -1.6423   -2.5391    0.5387 H   0  0  0  0  0  0  0  0  0  0  0  0
   -2.8664   -1.7020   -0.4750 H   0  0  0  0  0  0  0  0  0  0  0  0
   -4.4758   -0.2554    4.2335 H   0  0  0  0  0  0  0  0  0  0  0  0
    1.0193    1.4665    0.0002 H   0  0  0  0  0  0  0  0  0  0  0  0
    0.0022   -0.0141    0.0020 H   0  0  0  0  0  0  0  0  0  0  0  0
   -2.3074    3.8240    4.1560 H   0  0  0  0  0  0  0  0  0  0  0  0
   -0.0939    5.1897    2.4995 H   0  0  0  0  0  0  0  0  0  0  0  0
   -1.0359    6.1535    3.6872 H   0  0  0  0  0  0  0  0  0  0  0  0
   -0.2106    4.4375    5.7341 H   0  0  0  0  0  0  0  0  0  0  0  0
    0.7314    3.4738    4.5464 H   0  0  0  0  0  0  0  0  0  0  0  0
   -4.2942    1.6939    5.6142 H   0  0  0  0  0  0  0  0  0  0  0  0
  1  2  1  0  0  0  0
  1 28  1  0  0  0  0
  1 29  1  0  0  0  0
  1 30  1  0  0  0  0
  2  3  1  0  0  0  0
  2 31  1  0  0  0  0
  2 32  1  0  0  0  0
  3  7  1  0  0  0  0
  3  4  1  0  0  0  0
  4  5  2  0  0  0  0
  4 33  1  0  0  0  0
  5  6  1  0  0  0  0
  5  9  1  0  0  0  0
  6  7  2  0  0  0  0
  6  8  1  0  0  0  0
  8 34  1  0  0  0  0
  8 35  1  0  0  0  0
  8 36  1  0  0  0  0
  9 17  2  0  0  0  0
  9 10  1  0  0  0  0
 10 11  2  0  0  0  0
 10 37  1  0  0  0  0
 11 12  1  0  0  0  0
 11 25  1  0  0  0  0
 12 16  2  0  0  0  0
 12 13  1  0  0  0  0
 13 14  2  0  0  0  0
 13 22  1  0  0  0  0
 14 15  1  0  0  0  0
 15 16  1  0  0  0  0
 15 18  1  0  0  0  0
 16 17  1  0  0  0  0
 18 19  1  0  0  0  0
 18 38  1  0  0  0  0
 18 39  1  0  0  0  0
 19 20  2  0  0  0  0
 19 21  1  0  0  0  0
 22 24  1  0  0  0  0
 22 23  1  0  0  0  0
 22 40  1  0  0  0  0
 23 24  1  0  0  0  0
 23 41  1  0  0  0  0
 23 42  1  0  0  0  0
 24 43  1  0  0  0  0
 24 44  1  0  0  0  0
 25 26  1  0  0  0  0
 25 27  1  0  0  0  0
 25 45  1  0  0  0  0
M  END
$$$$
ZINC40200625
 OpenBabel01252620473D

 67 70  0  0  0  0  0  0  0  0999 V2000
   -0.0173    1.4248    0.0099 C   0  0  0  0  0  0  0  0  0  0  0  0
    0.0021   -0.0041    0.0020 O   0  0  0  0  0  0  0  0  0  0  0  0
    0.6062   -0.6076   -1.0565 C   0  0  0  0  0  0  0  0  0  0  0  0
    1.1709    0.1591   -2.0586 C   0  0  0  0  0  0  0  0  0  0  0  0
    1.7917   -0.4614   -3.1454 C   0  0  0  0  0  0  0  0  0  0  0  0
    1.8402   -1.8558   -3.2164 C   0  0  0  0  0  0  0  0  0  0  0  0
    1.2741   -2.6179   -2.2117 C   0  0  0  0  0  0  0  0  0  0  0  0
    0.6606   -1.9970   -1.1270 C   0  0  0  0  0  0  0  0  0  0  0  0
    0.1093   -2.7485   -0.1380 O   0  0  0  0  0  0  0  0  0  0  0  0
   -1.2622   -3.1187   -0.2924 C   0  0  0  0  0  0  0  0  0  0  0  0
    1.3206   -3.9754   -2.2805 O   0  0  0  0  0  0  0  0  0  0  0  0
    1.9698   -4.5455   -3.4187 C   0  0  0  0  0  0  0  0  0  0  0  0
    2.3950    0.3549   -4.2172 C   0  0  0  0  0  0  0  0  0  0  0  0
    2.3519    1.5683   -4.1545 O   0  0  0  0  0  0  0  0  0  0  0  0
    2.9937   -0.2450   -5.2651 N   0  0  0  0  0  0  0  0  0  0  0  0
    3.5925    0.5652   -6.3288 C   0  0  0  0  0  0  0  0  0  0  0  0
    4.2004   -0.3547   -7.3896 C   0  0  0  0  0  0  0  0  0  0  0  0
    4.8163    0.4787   -8.4837 C   0  0  0  0  0  0  0  0  0  0  0  0
    4.1920    0.8897   -9.5487 N   0  0  0  0  0  0  0  0  0  0  0  0
    5.0395    1.6143  -10.3235 C   0  0  0  0  0  0  0  0  0  0  0  0
    4.9001    2.2750  -11.5470 C   0  0  0  0  0  0  0  0  0  0  0  0
    5.9657    2.9359  -12.0890 C   0  0  0  0  0  0  0  0  0  0  0  0
    7.1905    2.9590  -11.4369 C   0  0  0  0  0  0  0  0  0  0  0  0
    7.3512    2.3143  -10.2290 C   0  0  0  0  0  0  0  0  0  0  0  0
    6.2792    1.6378   -9.6627 C   0  0  0  0  0  0  0  0  0  0  0  0
    6.1045    0.9157   -8.4991 N   0  0  0  0  0  0  0  0  0  0  0  0
    7.1191    0.6639   -7.4728 C   0  0  0  0  0  0  0  0  0  0  0  0
    7.8719   -0.6259   -7.8055 C   0  0  0  0  0  0  0  0  0  0  0  0
    8.9316   -0.8889   -6.7337 C   0  0  0  0  0  0  0  0  0  0  0  0
    9.6347   -2.0935   -7.0444 O   0  0  0  0  0  0  0  0  0  0  0  0
   10.6173   -2.4735   -6.1856 C   0  0  0  0  0  0  0  0  0  0  0  0
   10.8950   -1.7061   -5.0640 C   0  0  0  0  0  0  0  0  0  0  0  0
   11.8938   -2.0946   -4.1923 C   0  0  0  0  0  0  0  0  0  0  0  0
   12.6173   -3.2473   -4.4368 C   0  0  0  0  0  0  0  0  0  0  0  0
   12.3436   -4.0143   -5.5539 C   0  0  0  0  0  0  0  0  0  0  0  0
   11.3409   -3.6335   -6.4263 C   0  0  0  0  0  0  0  0  0  0  0  0
   10.9924   -4.6006   -7.8252 Cl  0  0  0  0  0  0  0  0  0  0  0  0
    1.0053    1.8021    0.0021 H   0  0  0  0  0  0  0  0  0  0  0  0
   -0.5445    1.7859   -0.8732 H   0  0  0  0  0  0  0  0  0  0  0  0
   -0.5275    1.7763    0.9067 H   0  0  0  0  0  0  0  0  0  0  0  0
    1.1317    1.2369   -2.0016 H   0  0  0  0  0  0  0  0  0  0  0  0
    2.3193   -2.3379   -4.0558 H   0  0  0  0  0  0  0  0  0  0  0  0
   -1.8763   -2.2204   -0.3545 H   0  0  0  0  0  0  0  0  0  0  0  0
   -1.3802   -3.7033   -1.2048 H   0  0  0  0  0  0  0  0  0  0  0  0
   -1.5762   -3.7150    0.5643 H   0  0  0  0  0  0  0  0  0  0  0  0
    1.4602   -4.2235   -4.3268 H   0  0  0  0  0  0  0  0  0  0  0  0
    3.0081   -4.2150   -3.4481 H   0  0  0  0  0  0  0  0  0  0  0  0
    1.9364   -5.6328   -3.3493 H   0  0  0  0  0  0  0  0  0  0  0  0
    3.0281   -1.2131   -5.3151 H   0  0  0  0  0  0  0  0  0  0  0  0
    2.8247    1.1893   -6.7860 H   0  0  0  0  0  0  0  0  0  0  0  0
    4.3726    1.1990   -5.9073 H   0  0  0  0  0  0  0  0  0  0  0  0
    4.9682   -0.9788   -6.9324 H   0  0  0  0  0  0  0  0  0  0  0  0
    3.4203   -0.9885   -7.8111 H   0  0  0  0  0  0  0  0  0  0  0  0
    3.9516    2.2628  -12.0634 H   0  0  0  0  0  0  0  0  0  0  0  0
    5.8540    3.4453  -13.0347 H   0  0  0  0  0  0  0  0  0  0  0  0
    8.0236    3.4854  -11.8788 H   0  0  0  0  0  0  0  0  0  0  0  0
    8.3064    2.3357   -9.7255 H   0  0  0  0  0  0  0  0  0  0  0  0
    7.8212    1.4972   -7.4438 H   0  0  0  0  0  0  0  0  0  0  0  0
    6.6357    0.5621   -6.5012 H   0  0  0  0  0  0  0  0  0  0  0  0
    7.1699   -1.4592   -7.8345 H   0  0  0  0  0  0  0  0  0  0  0  0
    8.3554   -0.5241   -8.7771 H   0  0  0  0  0  0  0  0  0  0  0  0
    9.6336   -0.0556   -6.7046 H   0  0  0  0  0  0  0  0  0  0  0  0
    8.4481   -0.9907   -5.7621 H   0  0  0  0  0  0  0  0  0  0  0  0
   10.3309   -0.8052   -4.8726 H   0  0  0  0  0  0  0  0  0  0  0  0
   12.1101   -1.4971   -3.3190 H   0  0  0  0  0  0  0  0  0  0  0  0
   13.3980   -3.5488   -3.7540 H   0  0  0  0  0  0  0  0  0  0  0  0
   12.9106   -4.9139   -5.7430 H   0  0  0  0  0  0  0  0  0  0  0  0
  1  2  1  0  0  0  0
  1 38  1  0  0  0  0
  1 39  1  0  0  0  0
  1 40  1  0  0  0  0
  2  3  1  0  0  0  0
  3  8  2  0  0  0  0
  3  4  1  0  0  0  0
  4  5  2  0  0  0  0
  4 41  1  0  0  0  0
  5  6  1  0  0  0  0
  5 13  1  0  0  0  0
  6  7  2  0  0  0  0
  6 42  1  0  0  0  0
  7  8  1  0  0  0  0
  7 11  1  0  0  0  0
  8  9  1  0  0  0  0
  9 10  1  0  0  0  0
 10 43  1  0  0  0  0
 10 44  1  0  0  0  0
 10 45  1  0  0  0  0
 11 12  1  0  0  0  0
 12 46  1  0  0  0  0
 12 47  1  0  0  0  0
 12 48  1  0  0  0  0
 13 14  2  0  0  0  0
 13 15  1  0  0  0  0
 15 16  1  0  0  0  0
 15 49  1  0  0  0  0
 16 17  1  0  0  0  0
 16 50  1  0  0  0  0
 16 51  1  0  0  0  0
 17 18  1  0  0  0  0
 17 52  1  0  0  0  0
 17 53  1  0  0  0  0
 18 26  1  0  0  0  0
 18 19  2  0  0  0  0
 19 20  1  0  0  0  0
 20 25  2  0  0  0  0
 20 21  1  0  0  0  0
 21 22  2  0  0  0  0
 21 54  1  0  0  0  0
 22 23  1  0  0  0  0
 22 55  1  0  0  0  0
 23 24  2  0  0  0  0
 23 56  1  0  0  0  0
 24 25  1  0  0  0  0
 24 57  1  0  0  0  0
 25 26  1  0  0  0  0
 26 27  1  0  0  0  0
 27 28  1  0  0  0  0
 27 58  1  0  0  0  0
 27 59  1  0  0  0  0
 28 29  1  0  0  0  0
 28 60  1  0  0  0  0
 28 61  1  0  0  0  0
 29 30  1  0  0  0  0
 29 62  1  0  0  0  0
 29 63  1  0  0  0  0
 30 31  1  0  0  0  0
 31 36  2  0  0  0  0
 31 32  1  0  0  0  0
 32 33  2  0  0  0  0
 32 64  1  0  0  0  0
 33 34  1  0  0  0  0
 33 65  1  0  0  0  0
 34 35  2  0  0  0  0
 34 66  1  0  0  0  0
 35 36  1  0  0  0  0
 35 67  1  0  0  0  0
 36 37  1  0  0  0  0
M  END
$$$$
ZINC20804512
 OpenBabel01252620473D

 31 32  0  0  0  0  0  0  0  0999 V2000
   -6.2632    7.6462    0.0734 C   0  0  0  0  0  0  0  0  0  0  0  0
   -5.0762    8.3582    0.0716 C   0  0  0  0  0  0  0  0  0  0  0  0
   -3.8688    7.6927    0.0622 C   0  0  0  0  0  0  0  0  0  0  0  0
   -3.8456    6.2938    0.0545 C   0  0  0  0  0  0  0  0  0  0  0  0
   -5.0499    5.5816    0.0506 C   0  0  0  0  0  0  0  0  0  0  0  0
   -6.2488    6.2621    0.0663 C   0  0  0  0  0  0  0  0  0  0  0  0
   -2.5621    5.5759    0.0445 C   0  0  0  0  0  0  0  0  0  0  0  0
   -2.5438    4.2234    0.0371 C   0  0  0  0  0  0  0  0  0  0  0  0
   -1.3115    3.5341    0.0275 C   0  0  0  0  0  0  0  0  0  0  0  0
   -1.2931    2.1775    0.0200 C   0  0  0  0  0  0  0  0  0  0  0  0
   -0.0178    1.4642    0.0101 C   0  0  0  0  0  0  0  0  0  0  0  0
    1.0297    2.0882    0.0034 O   0  0  0  0  0  0  0  0  0  0  0  0
    0.0021   -0.0041    0.0020 C   0  0  0  0  0  0  0  0  0  0  0  0
    1.2081   -0.6902   -0.0190 C   0  0  0  0  0  0  0  0  0  0  0  0
    1.3147   -2.0348    0.0087 N   0  0  0  0  0  0  0  0  0  0  0  0
    2.2691   -2.5052    0.2878 H   0  0  0  0  0  0  0  0  0  0  0  0
    0.3370   -2.9015   -0.2808 C   0  0  0  0  0  0  0  0  0  0  0  0
    0.5452   -4.0953   -0.1812 O   0  0  0  0  0  0  0  0  0  0  0  0
   -1.2497   -2.3360   -0.8056 S   0  0  0  0  0  0  0  0  0  0  0  0
   -1.2556   -0.7655    0.0099 C   0  0  0  0  0  0  0  0  0  0  0  0
   -2.2565   -0.3350    0.5537 O   0  0  0  0  0  0  0  0  0  0  0  0
    2.3436    0.0318   -0.0642 O   0  5  0  0  0  0  0  0  0  0  0  0
   -7.2058    8.1734    0.0808 H   0  0  0  0  0  0  0  0  0  0  0  0
   -5.0960    9.4380    0.0772 H   0  0  0  0  0  0  0  0  0  0  0  0
   -2.9436    8.2497    0.0612 H   0  0  0  0  0  0  0  0  0  0  0  0
   -5.0403    4.5016    0.0398 H   0  0  0  0  0  0  0  0  0  0  0  0
   -7.1793    5.7138    0.0677 H   0  0  0  0  0  0  0  0  0  0  0  0
   -1.6170    6.1388    0.0430 H   0  0  0  0  0  0  0  0  0  0  0  0
   -3.4889    3.6605    0.0386 H   0  0  0  0  0  0  0  0  0  0  0  0
   -0.3664    4.0970    0.0261 H   0  0  0  0  0  0  0  0  0  0  0  0
   -2.2382    1.6146    0.0214 H   0  0  0  0  0  0  0  0  0  0  0  0
  1  6  2  0  0  0  0
  1  2  1  0  0  0  0
  1 23  1  0  0  0  0
  2  3  2  0  0  0  0
  2 24  1  0  0  0  0
  3  4  1  0  0  0  0
  3 25  1  0  0  0  0
  4  5  2  0  0  0  0
  4  7  1  0  0  0  0
  5  6  1  0  0  0  0
  5 26  1  0  0  0  0
  6 27  1  0  0  0  0
  7  8  2  0  0  0  0
  7 28  1  0  0  0  0
  8  9  1  0  0  0  0
  8 29  1  0  0  0  0
  9 10  2  0  0  0  0
  9 30  1  0  0  0  0
 10 11  1  0  0  0  0
 10 31  1  0  0  0  0
 11 12  2  0  0  0  0
 11 13  1  0  0  0  0
 13 20  1  0  0  0  0
 13 14  2  0  0  0  0
 14 15  1  0  0  0  0
 14 22  1  0  0  0  0
 15 16  1  0  0  0  0
 15 17  1  0  0  0  0
 17 18  2  0  0  0  0
 17 19  1  0  0  0  0
 19 20  1  0  0  0  0
 20 21  2  0  0  0  0
M  CHG  1  22  -1
M  END
$$$$
ZINC40523249
 OpenBabel01252620473D

 51 52  0  0  0  0  0  0  0  0999 V2000
   -0.5222    1.4126    0.0620 C   0  0  0  0  0  0  0  0  0  0  0  0
   -0.0570   -0.0198    0.0085 C   0  0  0  0  0  0  0  0  0  0  0  0
    0.0221   -0.6926   -1.2052 C   0  0  0  0  0  0  0  0  0  0  0  0
    0.4789   -2.0834   -1.2132 C   0  0  0  0  0  0  0  0  0  0  0  0
    0.5570   -2.6939   -2.2644 O   0  0  0  0  0  0  0  0  0  0  0  0
    0.8130   -2.6865   -0.0569 N   0  0  0  0  0  0  0  0  0  0  0  0
    0.7352   -2.0296    1.1240 C   0  0  0  0  0  0  0  0  0  0  0  0
    0.3104   -0.6977    1.1862 C   0  0  0  0  0  0  0  0  0  0  0  0
    0.2428   -0.0114    2.4760 C   0  0  0  0  0  0  0  0  0  0  0  0
   -0.0090    1.1751    2.5197 O   0  0  0  0  0  0  0  0  0  0  0  0
    0.4859   -0.7775    3.7508 C   0  0  0  0  0  0  0  0  0  0  0  0
    0.4425    0.1203    4.8617 O   0  0  0  0  0  0  0  0  0  0  0  0
    0.6439   -0.4140    6.0951 C   0  0  0  0  0  0  0  0  0  0  0  0
    0.8840   -1.7734    6.2324 C   0  0  0  0  0  0  0  0  0  0  0  0
    1.0885   -2.3145    7.4869 C   0  0  0  0  0  0  0  0  0  0  0  0
    1.0538   -1.5017    8.6059 C   0  0  0  0  0  0  0  0  0  0  0  0
    0.8141   -0.1459    8.4712 C   0  0  0  0  0  0  0  0  0  0  0  0
    0.6153    0.4002    7.2179 C   0  0  0  0  0  0  0  0  0  0  0  0
    1.3340   -2.2451   10.3219 Br  0  0  0  0  0  0  0  0  0  0  0  0
    1.0781   -2.6673    2.2586 O   0  5  0  0  0  0  0  0  0  0  0  0
    1.2683   -4.0788   -0.0771 C   0  0  0  0  0  0  0  0  0  0  0  0
    2.7887   -4.1158   -0.2440 C   0  0  0  0  0  0  0  0  0  0  0  0
    3.2643   -5.5698   -0.2651 C   0  0  0  0  0  0  0  0  0  0  0  0
    4.6843   -5.6044   -0.4210 O   0  0  0  0  0  0  0  0  0  0  0  0
    5.2336   -6.9232   -0.4531 C   0  0  0  0  0  0  0  0  0  0  0  0
    5.2715   -7.4248   -1.8980 C   0  0  0  0  0  0  0  0  0  0  0  0
    6.6538   -6.8981    0.1155 C   0  0  0  0  0  0  0  0  0  0  0  0
   -0.3374   -0.0368   -2.4264 C   0  0  0  0  0  0  0  0  0  0  0  0
   -0.6226    0.4834   -3.3952 N   0  0  0  0  0  0  0  0  0  0  0  0
    0.3427    2.0759    0.0566 H   0  0  0  0  0  0  0  0  0  0  0  0
   -1.1477    1.6241   -0.8053 H   0  0  0  0  0  0  0  0  0  0  0  0
   -1.0981    1.5738    0.9733 H   0  0  0  0  0  0  0  0  0  0  0  0
   -0.2845   -1.5396    3.8693 H   0  0  0  0  0  0  0  0  0  0  0  0
    1.4650   -1.2544    3.7071 H   0  0  0  0  0  0  0  0  0  0  0  0
    0.9108   -2.4083    5.3592 H   0  0  0  0  0  0  0  0  0  0  0  0
    1.2751   -3.3728    7.5943 H   0  0  0  0  0  0  0  0  0  0  0  0
    0.7871    0.4869    9.3460 H   0  0  0  0  0  0  0  0  0  0  0  0
    0.4333    1.4596    7.1127 H   0  0  0  0  0  0  0  0  0  0  0  0
    0.9937   -4.5645    0.8593 H   0  0  0  0  0  0  0  0  0  0  0  0
    0.7985   -4.6027   -0.9095 H   0  0  0  0  0  0  0  0  0  0  0  0
    3.0633   -3.6301   -1.1804 H   0  0  0  0  0  0  0  0  0  0  0  0
    3.2585   -3.5919    0.5884 H   0  0  0  0  0  0  0  0  0  0  0  0
    2.9897   -6.0555    0.6713 H   0  0  0  0  0  0  0  0  0  0  0  0
    2.7945   -6.0937   -1.0975 H   0  0  0  0  0  0  0  0  0  0  0  0
    4.6138   -7.5896    0.1467 H   0  0  0  0  0  0  0  0  0  0  0  0
    5.6905   -8.4308   -1.9225 H   0  0  0  0  0  0  0  0  0  0  0  0
    4.2597   -7.4427   -2.3031 H   0  0  0  0  0  0  0  0  0  0  0  0
    5.8913   -6.7584   -2.4979 H   0  0  0  0  0  0  0  0  0  0  0  0
    6.6268   -6.5407    1.1448 H   0  0  0  0  0  0  0  0  0  0  0  0
    7.0728   -7.9041    0.0910 H   0  0  0  0  0  0  0  0  0  0  0  0
    7.2736   -6.2317   -0.4844 H   0  0  0  0  0  0  0  0  0  0  0  0
  1  2  1  0  0  0  0
  1 30  1  0  0  0  0
  1 31  1  0  0  0  0
  1 32  1  0  0  0  0
  2  8  1  0  0  0  0
  2  3  2  0  0  0  0
  3  4  1  0  0  0  0
  3 28  1  0  0  0  0
  4  5  2  0  0  0  0
  4  6  1  0  0  0  0
  6  7  1  0  0  0  0
  6 21  1  0  0  0  0
  7  8  2  0  0  0  0
  7 20  1  0  0  0  0
  8  9  1  0  0  0  0
  9 10  2  0  0  0  0
  9 11  1  0  0  0  0
 11 12  1  0  0  0  0
 11 33  1  0  0  0  0
 11 34  1  0  0  0  0
 12 13  1  0  0  0  0
 13 18  2  0  0  0  0
 13 14  1  0  0  0  0
 14 15  2  0  0  0  0
 14 35  1  0  0  0  0
 15 16  1  0  0  0  0
 15 36  1  0  0  0  0
 16 17  2  0  0  0  0
 16 19  1  0  0  0  0
 17 18  1  0  0  0  0
 17 37  1  0  0  0  0
 18 38  1  0  0  0  0
 21 22  1  0  0  0  0
 21 39  1  0  0  0  0
 21 40  1  0  0  0  0
 22 23  1  0  0  0  0
 22 41  1  0  0  0  0
 22 42  1  0  0  0  0
 23 24  1  0  0  0  0
 23 43  1  0  0  0  0
 23 44  1  0  0  0  0
 24 25  1  0  0  0  0
 25 26  1  0  0  0  0
 25 27  1  0  0  0  0
 25 45  1  0  0  0  0
 26 46  1  0  0  0  0
 26 47  1  0  0  0  0
 26 48  1  0  0  0  0
 27 49  1  0  0  0  0
 27 50  1  0  0  0  0
 27 51  1  0  0  0  0
 28 29  3  0  0  0  0
M  CHG  1  20  -1
M  END
$$$$
ZINC40175738
 OpenBabel01252620473D

 25 27  0  0  0  0  0  0  0  0999 V2000
    0.0592    1.3802    0.7123 C   0  0  0  0  0  0  0  0  0  0  0  0
    1.2017    2.0925    0.4752 C   0  0  0  0  0  0  0  0  0  0  0  0
    2.3969    1.4188    0.2235 C   0  0  0  0  0  0  0  0  0  0  0  0
    3.6509    2.1476   -0.0363 C   0  0  0  0  0  0  0  0  0  0  0  0
    3.6822    3.3672   -0.0393 O   0  0  0  0  0  0  0  0  0  0  0  0
    4.8173    1.3861   -0.2818 C   0  0  0  0  0  0  0  0  0  0  0  0
    4.7597    0.0380   -0.2738 C   0  0  0  0  0  0  0  0  0  0  0  0
    3.6114   -0.6404   -0.0363 N   0  0  0  0  0  0  0  0  0  0  0  0
    2.4250    0.0136    0.2140 C   0  0  0  0  0  0  0  0  0  0  0  0
    1.2491   -0.6939    0.4578 C   0  0  0  0  0  0  0  0  0  0  0  0
    0.0782   -0.0074    0.7048 C   0  0  0  0  0  0  0  0  0  0  0  0
    1.2560   -2.0449    0.4525 F   0  0  0  0  0  0  0  0  0  0  0  0
    3.6319   -2.1052   -0.0454 C   0  0  0  0  0  0  0  0  0  0  0  0
    3.7757   -2.6144    1.3657 C   0  0  0  0  0  0  0  0  0  0  0  0
    2.7923   -2.8967    2.2078 N   0  0  0  0  0  2  0  0  0  0  0  0
    3.3266   -3.3030    3.3087 N   0  0  0  0  0  0  0  0  0  0  0  0
    4.6081   -3.2846    3.1847 N   0  0  0  0  0  0  0  0  0  0  0  0
    4.9097   -2.8714    2.0012 N   0  0  0  0  0  0  0  0  0  0  0  0
   -0.8653    1.9019    0.9117 H   0  0  0  0  0  0  0  0  0  0  0  0
    1.1789    3.1722    0.4823 H   0  0  0  0  0  0  0  0  0  0  0  0
    5.7555    1.8844   -0.4763 H   0  0  0  0  0  0  0  0  0  0  0  0
    5.6635   -0.5216   -0.4643 H   0  0  0  0  0  0  0  0  0  0  0  0
   -0.8329   -0.5554    0.8943 H   0  0  0  0  0  0  0  0  0  0  0  0
    2.7017   -2.4789   -0.4735 H   0  0  0  0  0  0  0  0  0  0  0  0
    4.4733   -2.4531   -0.6447 H   0  0  0  0  0  0  0  0  0  0  0  0
  1 11  2  0  0  0  0
  1  2  1  0  0  0  0
  1 19  1  0  0  0  0
  2  3  2  0  0  0  0
  2 20  1  0  0  0  0
  3  9  1  0  0  0  0
  3  4  1  0  0  0  0
  4  5  2  0  0  0  0
  4  6  1  0  0  0  0
  6  7  2  0  0  0  0
  6 21  1  0  0  0  0
  7  8  1  0  0  0  0
  7 22  1  0  0  0  0
  8  9  1  0  0  0  0
  8 13  1  0  0  0  0
  9 10  2  0  0  0  0
 10 11  1  0  0  0  0
 10 12  1  0  0  0  0
 11 23  1  0  0  0  0
 13 14  1  0  0  0  0
 13 24  1  0  0  0  0
 13 25  1  0  0  0  0
 14 15  1  0  0  0  0
 14 18  2  0  0  0  0
 15 16  1  0  0  0  0
 16 17  2  0  0  0  0
 17 18  1  0  0  0  0
M  END
$$$$
ZINC13234592
 OpenBabel01252620473D

 45 46  0  0  1  0  0  0  0  0999 V2000
    1.1914    3.5615    0.0098 C   0  0  0  0  0  0  0  0  0  0  0  0
    1.1954    2.0545    0.0017 C   0  0  0  0  0  0  0  0  0  0  0  0
   -0.0164    1.3545    0.0095 C   0  0  0  0  0  0  0  0  0  0  0  0
    0.0021   -0.0041    0.0020 C   0  0  0  0  0  0  0  0  0  0  0  0
    1.1985   -0.6474   -0.0129 N   0  0  0  0  0  0  0  0  0  0  0  0
    2.3641    0.0657   -0.0201 C   0  0  0  0  0  0  0  0  0  0  0  0
    2.3369    1.4034   -0.0137 N   0  0  0  0  0  0  0  0  0  0  0  0
    3.3641   -0.8093   -0.0336 N   0  0  0  0  0  0  0  0  0  0  0  0
    2.8768   -2.0482   -0.0352 C   0  0  0  0  0  0  0  0  0  0  0  0
    1.5597   -2.0011   -0.0228 N   0  0  0  0  0  0  0  0  0  0  0  0
    3.8425   -3.5219   -0.0513 S   0  0  0  0  0  0  0  0  0  0  0  0
    5.5552   -2.9241   -0.0642 C   0  0  2  0  0  0  0  0  0  0  0  0
    5.7118   -2.2520    0.7795 H   0  0  0  0  0  0  0  0  0  0  0  0
    5.8238   -2.1741   -1.3704 C   0  0  0  0  0  0  0  0  0  0  0  0
    6.4969   -4.0955    0.0453 C   0  0  0  0  0  0  0  0  0  0  0  0
    6.1416   -5.1956   -0.3216 O   0  0  0  0  0  0  0  0  0  0  0  0
    7.7340   -3.9207    0.5508 N   0  0  0  0  0  0  0  0  0  0  0  0
    8.6495   -5.0595    0.6572 C   0  0  0  0  0  0  0  0  0  0  0  0
    9.9567   -4.5995    1.2495 C   0  0  0  0  0  0  0  0  0  0  0  0
   10.4336   -5.1863    2.3192 C   0  0  0  0  0  0  0  0  0  0  0  0
   -1.2862   -0.7860    0.0096 C   0  0  0  0  0  0  0  0  0  0  0  0
   -1.3266    2.0990    0.0198 C   0  0  0  0  0  0  0  0  0  0  0  0
   -1.7631    2.3431    1.4657 C   0  0  0  0  0  0  0  0  0  0  0  0
   -3.0733    3.0876    1.4760 C   0  0  0  0  0  0  0  0  0  0  0  0
   -3.6036    3.3918    0.4338 O   0  0  0  0  0  0  0  0  0  0  0  0
    1.2003    3.9193    1.0394 H   0  0  0  0  0  0  0  0  0  0  0  0
    2.0755    3.9299   -0.5105 H   0  0  0  0  0  0  0  0  0  0  0  0
    0.2956    3.9251   -0.4936 H   0  0  0  0  0  0  0  0  0  0  0  0
    5.6672   -2.8462   -2.2141 H   0  0  0  0  0  0  0  0  0  0  0  0
    5.1426   -1.3268   -1.4495 H   0  0  0  0  0  0  0  0  0  0  0  0
    6.8529   -1.8149   -1.3781 H   0  0  0  0  0  0  0  0  0  0  0  0
    8.0182   -3.0409    0.8442 H   0  0  0  0  0  0  0  0  0  0  0  0
    8.2080   -5.8218    1.2991 H   0  0  0  0  0  0  0  0  0  0  0  0
    8.8266   -5.4771   -0.3339 H   0  0  0  0  0  0  0  0  0  0  0  0
   10.5003   -3.7861    0.7920 H   0  0  0  0  0  0  0  0  0  0  0  0
   11.3704   -4.8567    2.7437 H   0  0  0  0  0  0  0  0  0  0  0  0
    9.8900   -5.9997    2.7767 H   0  0  0  0  0  0  0  0  0  0  0  0
   -1.6062   -0.9690   -1.0162 H   0  0  0  0  0  0  0  0  0  0  0  0
   -1.1303   -1.7381    0.5169 H   0  0  0  0  0  0  0  0  0  0  0  0
   -2.0538   -0.2165    0.5336 H   0  0  0  0  0  0  0  0  0  0  0  0
   -1.2052    3.0551   -0.4895 H   0  0  0  0  0  0  0  0  0  0  0  0
   -2.0846    1.5075   -0.4937 H   0  0  0  0  0  0  0  0  0  0  0  0
   -1.8845    1.3871    1.9749 H   0  0  0  0  0  0  0  0  0  0  0  0
   -1.0051    2.9346    1.9792 H   0  0  0  0  0  0  0  0  0  0  0  0
   -3.6513    3.4129    2.6430 O   0  0  0  0  0  1  0  0  0  0  0  0
  1  2  1  0  0  0  0
  1 26  1  0  0  0  0
  1 27  1  0  0  0  0
  1 28  1  0  0  0  0
  2  7  2  0  0  0  0
  2  3  1  0  0  0  0
  3  4  2  0  0  0  0
  3 22  1  0  0  0  0
  4  5  1  0  0  0  0
  4 21  1  0  0  0  0
  5 10  1  0  0  0  0
  5  6  1  0  0  0  0
  6  7  1  0  0  0  0
  6  8  2  0  0  0  0
  8  9  1  0  0  0  0
  9 10  2  0  0  0  0
  9 11  1  0  0  0  0
 11 12  1  0  0  0  0
 12 13  1  1  0  0  0
 12 14  1  0  0  0  0
 12 15  1  0  0  0  0
 14 29  1  0  0  0  0
 14 30  1  0  0  0  0
 14 31  1  0  0  0  0
 15 16  2  0  0  0  0
 15 17  1  0  0  0  0
 17 18  1  0  0  0  0
 17 32  1  0  0  0  0
 18 19  1  0  0  0  0
 18 33  1  0  0  0  0
 18 34  1  0  0  0  0
 19 20  2  0  0  0  0
 19 35  1  0  0  0  0
 20 36  1  0  0  0  0
 20 37  1  0  0  0  0
 21 38  1  0  0  0  0
 21 39  1  0  0  0  0
 21 40  1  0  0  0  0
 22 23  1  0  0  0  0
 22 41  1  0  0  0  0
 22 42  1  0  0  0  0
 23 24  1  0  0  0  0
 23 43  1  0  0  0  0
 23 44  1  0  0  0  0
 24 25  2  0  0  0  0
 24 45  1  0  0  0  0
M  END
$$$$
ZINC41237988
 OpenBabel01252620473D

 43 44  0  0  0  0  0  0  0  0999 V2000
   -0.0187    1.5258    0.0104 C   0  0  0  0  0  0  0  0  0  0  0  0
    0.0021   -0.0041    0.0020 C   0  0  0  0  0  0  0  0  0  0  0  0
    0.6709   -0.4649   -1.1737 O   0  0  0  0  0  0  0  0  0  0  0  0
    0.7768   -1.8100   -1.3361 C   0  0  0  0  0  0  0  0  0  0  0  0
    0.2427   -2.6687   -0.3864 C   0  0  0  0  0  0  0  0  0  0  0  0
    0.3511   -4.0357   -0.5541 C   0  0  0  0  0  0  0  0  0  0  0  0
    0.9917   -4.5482   -1.6671 C   0  0  0  0  0  0  0  0  0  0  0  0
    1.5253   -3.6944   -2.6148 C   0  0  0  0  0  0  0  0  0  0  0  0
    1.4140   -2.3268   -2.4548 C   0  0  0  0  0  0  0  0  0  0  0  0
    1.1289   -6.2921   -1.8777 S   0  0  0  0  0  0  0  0  0  0  0  0
    2.2488   -6.5121   -2.7242 O   0  0  0  0  0  0  0  0  0  0  0  0
    1.0288   -6.8668   -0.5819 O   0  0  0  0  0  0  0  0  0  0  0  0
   -0.2067   -6.7900   -2.7207 N   0  0  0  0  0  0  0  0  0  0  0  0
   -0.4117   -6.3409   -4.1000 C   0  0  0  0  0  0  0  0  0  0  0  0
   -1.4787   -7.2115   -4.7666 C   0  0  0  0  0  0  0  0  0  0  0  0
   -1.7326   -6.6554   -6.4745 S   0  0  0  0  0  0  0  0  0  0  0  0
   -2.3288   -5.3656   -6.4857 O   0  0  0  0  0  0  0  0  0  0  0  0
   -0.5758   -6.9255   -7.2543 O   0  0  0  0  0  0  0  0  0  0  0  0
   -2.8968   -7.6643   -7.0820 N   0  0  0  0  0  2  0  0  0  0  0  0
   -3.3350   -7.5107   -8.3932 C   0  0  0  0  0  0  0  0  0  0  0  0
   -4.3210   -8.2920   -9.0382 C   0  0  0  0  0  0  0  0  0  0  0  0
   -4.4608   -7.8335  -10.2942 C   0  0  0  0  0  0  0  0  0  0  0  0
   -3.6121   -6.8073  -10.4627 O   0  0  0  0  0  0  0  0  0  0  0  0
   -2.9117   -6.6135   -9.2472 N   0  0  0  0  0  0  0  0  0  0  0  0
   -5.4065   -8.3780  -11.3335 C   0  0  0  0  0  0  0  0  0  0  0  0
    1.0039    1.9031    0.0027 H   0  0  0  0  0  0  0  0  0  0  0  0
   -0.5459    1.8868   -0.8726 H   0  0  0  0  0  0  0  0  0  0  0  0
   -0.5289    1.8773    0.9072 H   0  0  0  0  0  0  0  0  0  0  0  0
    0.5293   -0.3651    0.8851 H   0  0  0  0  0  0  0  0  0  0  0  0
   -1.0205   -0.3814    0.0098 H   0  0  0  0  0  0  0  0  0  0  0  0
   -0.2572   -2.2689    0.4835 H   0  0  0  0  0  0  0  0  0  0  0  0
   -0.0645   -4.7046    0.1850 H   0  0  0  0  0  0  0  0  0  0  0  0
    2.0255   -4.0972   -3.4831 H   0  0  0  0  0  0  0  0  0  0  0  0
    1.8270   -1.6604   -3.1976 H   0  0  0  0  0  0  0  0  0  0  0  0
   -0.8532   -7.3791   -2.3013 H   0  0  0  0  0  0  0  0  0  0  0  0
   -0.7397   -5.3014   -4.0987 H   0  0  0  0  0  0  0  0  0  0  0  0
    0.5239   -6.4259   -4.6527 H   0  0  0  0  0  0  0  0  0  0  0  0
   -1.1507   -8.2510   -4.7680 H   0  0  0  0  0  0  0  0  0  0  0  0
   -2.4144   -7.1265   -4.2139 H   0  0  0  0  0  0  0  0  0  0  0  0
   -4.8665   -9.1140   -8.5986 H   0  0  0  0  0  0  0  0  0  0  0  0
   -6.3612   -7.8564  -11.2649 H   0  0  0  0  0  0  0  0  0  0  0  0
   -4.9812   -8.2282  -12.3258 H   0  0  0  0  0  0  0  0  0  0  0  0
   -5.5613   -9.4431  -11.1615 H   0  0  0  0  0  0  0  0  0  0  0  0
  1  2  1  0  0  0  0
  1 26  1  0  0  0  0
  1 27  1  0  0  0  0
  1 28  1  0  0  0  0
  2  3  1  0  0  0  0
  2 29  1  0  0  0  0
  2 30  1  0  0  0  0
  3  4  1  0  0  0  0
  4  9  2  0  0  0  0
  4  5  1  0  0  0  0
  5  6  2  0  0  0  0
  5 31  1  0  0  0  0
  6  7  1  0  0  0  0
  6 32  1  0  0  0  0
  7  8  2  0  0  0  0
  7 10  1  0  0  0  0
  8  9  1  0  0  0  0
  8 33  1  0  0  0  0
  9 34  1  0  0  0  0
 10 11  2  0  0  0  0
 10 12  2  0  0  0  0
 10 13  1  0  0  0  0
 13 14  1  0  0  0  0
 13 35  1  0  0  0  0
 14 15  1  0  0  0  0
 14 36  1  0  0  0  0
 14 37  1  0  0  0  0
 15 16  1  0  0  0  0
 15 38  1  0  0  0  0
 15 39  1  0  0  0  0
 16 17  2  0  0  0  0
 16 18  2  0  0  0  0
 16 19  1  0  0  0  0
 19 20  1  0  0  0  0
 20 24  2  0  0  0  0
 20 21  1  0  0  0  0
 21 22  2  0  0  0  0
 21 40  1  0  0  0  0
 22 23  1  0  0  0  0
 22 25  1  0  0  0  0
 23 24  1  0  0  0  0
 25 41  1  0  0  0  0
 25 42  1  0  0  0  0
 25 43  1  0  0  0  0
M  END
$$$$
ZINC44614532
 OpenBabel01252620473D

 37 38  0  0  1  0  0  0  0  0999 V2000
    0.9496    0.4240    1.1294 C   0  0  0  0  0  0  0  0  0  0  0  0
    0.8833   -1.0673    0.7938 C   0  0  0  0  0  0  0  0  0  0  0  0
    1.2230   -1.2731   -0.6837 C   0  0  2  0  0  0  0  0  0  0  0  0
    0.5630   -0.6598   -1.2971 H   0  0  0  0  0  0  0  0  0  0  0  0
    1.0387   -2.7247   -1.0441 C   0  0  0  0  0  0  0  0  0  0  0  0
   -0.0817   -3.2032   -1.0929 O   0  0  0  0  0  0  0  0  0  0  0  0
    2.0099   -3.4206   -1.2868 O   0  0  0  0  0  1  0  0  0  0  0  0
    2.6147   -0.8833   -0.9237 N   0  0  0  0  0  0  0  0  0  0  0  0
    3.6993   -1.5649   -0.2129 C   0  0  0  0  0  0  0  0  0  0  0  0
    2.8971    0.1024   -1.7984 C   0  0  0  0  0  0  0  0  0  0  0  0
    1.9975    0.7274   -2.3190 O   0  0  0  0  0  0  0  0  0  0  0  0
    4.3308    0.4279   -2.1297 C   0  0  0  0  0  0  0  0  0  0  0  0
    4.7373    0.4073   -3.6046 C   0  0  0  0  0  0  0  0  0  0  0  0
    5.2069   -0.7060   -2.6660 C   0  0  0  0  0  0  0  0  0  0  0  0
    4.9866    1.4532   -1.2410 C   0  0  0  0  0  0  0  0  0  0  0  0
    6.1065    1.1140   -0.5048 C   0  0  0  0  0  0  0  0  0  0  0  0
    6.7090    2.0535    0.3102 C   0  0  0  0  0  0  0  0  0  0  0  0
    6.1906    3.3349    0.3891 C   0  0  0  0  0  0  0  0  0  0  0  0
    5.0689    3.6735   -0.3487 C   0  0  0  0  0  0  0  0  0  0  0  0
    4.4712    2.7338   -1.1670 C   0  0  0  0  0  0  0  0  0  0  0  0
    6.7785    4.2541    1.1858 F   0  0  0  0  0  0  0  0  0  0  0  0
    1.9548    0.7964    0.9325 H   0  0  0  0  0  0  0  0  0  0  0  0
    0.2335    0.9673    0.5129 H   0  0  0  0  0  0  0  0  0  0  0  0
    0.7075    0.5706    2.1821 H   0  0  0  0  0  0  0  0  0  0  0  0
    1.5994   -1.6106    1.4104 H   0  0  0  0  0  0  0  0  0  0  0  0
   -0.1220   -1.4397    0.9908 H   0  0  0  0  0  0  0  0  0  0  0  0
    4.0939   -2.3675   -0.8359 H   0  0  0  0  0  0  0  0  0  0  0  0
    4.4938   -0.8519    0.0074 H   0  0  0  0  0  0  0  0  0  0  0  0
    3.3172   -1.9823    0.7187 H   0  0  0  0  0  0  0  0  0  0  0  0
    3.9677    0.1583   -4.3353 H   0  0  0  0  0  0  0  0  0  0  0  0
    5.4791    1.1355   -3.9324 H   0  0  0  0  0  0  0  0  0  0  0  0
    6.2577   -0.7102   -2.3763 H   0  0  0  0  0  0  0  0  0  0  0  0
    4.7463   -1.6874   -2.7792 H   0  0  0  0  0  0  0  0  0  0  0  0
    6.5104    0.1142   -0.5663 H   0  0  0  0  0  0  0  0  0  0  0  0
    7.5836    1.7881    0.8855 H   0  0  0  0  0  0  0  0  0  0  0  0
    4.6635    4.6727   -0.2876 H   0  0  0  0  0  0  0  0  0  0  0  0
    3.5990    2.9990   -1.7460 H   0  0  0  0  0  0  0  0  0  0  0  0
  1  2  1  0  0  0  0
  1 22  1  0  0  0  0
  1 23  1  0  0  0  0
  1 24  1  0  0  0  0
  2  3  1  0  0  0  0
  2 25  1  0  0  0  0
  2 26  1  0  0  0  0
  3  4  1  6  0  0  0
  3  5  1  0  0  0  0
  3  8  1  0  0  0  0
  5  6  2  0  0  0  0
  5  7  1  0  0  0  0
  8  9  1  0  0  0  0
  8 10  1  0  0  0  0
  9 27  1  0  0  0  0
  9 28  1  0  0  0  0
  9 29  1  0  0  0  0
 10 11  2  0  0  0  0
 10 12  1  0  0  0  0
 12 14  1  0  0  0  0
 12 13  1  0  0  0  0
 12 15  1  0  0  0  0
 13 14  1  0  0  0  0
 13 30  1  0  0  0  0
 13 31  1  0  0  0  0
 14 32  1  0  0  0  0
 14 33  1  0  0  0  0
 15 20  2  0  0  0  0
 15 16  1  0  0  0  0
 16 17  2  0  0  0  0
 16 34  1  0  0  0  0
 17 18  1  0  0  0  0
 17 35  1  0  0  0  0
 18 19  2  0  0  0  0
 18 21  1  0  0  0  0
 19 20  1  0  0  0  0
 19 36  1  0  0  0  0
 20 37  1  0  0  0  0
M  END
$$$$
ZINC48807578
 OpenBabel01252620473D

 25 26  0  0  0  0  0  0  0  0999 V2000
   -0.0168    1.3887    0.0097 C   0  0  0  0  0  0  0  0  0  0  0  0
    1.1530    2.0924    0.0023 C   0  0  0  0  0  0  0  0  0  0  0  0
    2.3781    1.4156   -0.0135 C   0  0  0  0  0  0  0  0  0  0  0  0
    2.3999    0.0143   -0.0213 C   0  0  0  0  0  0  0  0  0  0  0  0
    1.2150   -0.6878   -0.0133 C   0  0  0  0  0  0  0  0  0  0  0  0
    0.0021   -0.0041    0.0020 C   0  0  0  0  0  0  0  0  0  0  0  0
   -1.1926   -0.7130    0.0096 N   0  0  0  0  0  2  0  0  0  0  0  0
   -1.1728   -2.3688    0.0006 S   0  0  0  0  0  0  0  0  0  0  0  0
   -0.6291   -2.7617   -1.2522 O   0  0  0  0  0  0  0  0  0  0  0  0
   -0.6053   -2.7750    1.2384 O   0  0  0  0  0  0  0  0  0  0  0  0
   -2.8497   -2.9099    0.0137 C   0  0  0  0  0  0  0  0  0  0  0  0
   -3.3722   -3.6036   -1.0630 C   0  0  0  0  0  0  0  0  0  0  0  0
   -4.6666   -4.0058   -1.0197 C   0  0  0  0  0  0  0  0  0  0  0  0
   -5.1887   -3.4010    0.5768 S   0  0  0  0  0  0  0  0  0  0  0  0
   -3.6462   -2.6575    1.0818 C   0  0  0  0  0  0  0  0  0  0  0  0
   -3.2651   -1.8258    2.5571 Cl  0  0  0  0  0  0  0  0  0  0  0  0
   -5.5795   -4.8812   -2.2088 Cl  0  0  0  0  0  0  0  0  0  0  0  0
    3.9147   -0.8334   -0.0415 Cl  0  0  0  0  0  0  0  0  0  0  0  0
    3.6387    2.1727   -0.0225 C   0  0  0  0  0  0  0  0  0  0  0  0
    3.6176    3.3961   -0.0161 O   0  0  0  0  0  0  0  0  0  0  0  0
    4.7087    1.5793   -0.0363 O   0  0  0  0  0  1  0  0  0  0  0  0
   -0.9604    1.9139    0.0260 H   0  0  0  0  0  0  0  0  0  0  0  0
    1.1331    3.1722    0.0083 H   0  0  0  0  0  0  0  0  0  0  0  0
    1.2266   -1.7677   -0.0196 H   0  0  0  0  0  0  0  0  0  0  0  0
   -2.7589   -3.8214   -1.9248 H   0  0  0  0  0  0  0  0  0  0  0  0
  1  6  2  0  0  0  0
  1  2  1  0  0  0  0
  1 22  1  0  0  0  0
  2  3  2  0  0  0  0
  2 23  1  0  0  0  0
  3  4  1  0  0  0  0
  3 19  1  0  0  0  0
  4  5  2  0  0  0  0
  4 18  1  0  0  0  0
  5  6  1  0  0  0  0
  5 24  1  0  0  0  0
  6  7  1  0  0  0  0
  7  8  1  0  0  0  0
  8  9  2  0  0  0  0
  8 10  2  0  0  0  0
  8 11  1  0  0  0  0
 11 15  2  0  0  0  0
 11 12  1  0  0  0  0
 12 13  2  0  0  0  0
 12 25  1  0  0  0  0
 13 14  1  0  0  0  0
 13 17  1  0  0  0  0
 14 15  1  0  0  0  0
 15 16  1  0  0  0  0
 19 20  2  0  0  0  0
 19 21  1  0  0  0  0
M  END
$$$$
ZINC01850245
 OpenBabel01252620473D

 83 86  0  0  1  0  0  0  0  0999 V2000
    3.1218    4.0984   -1.1777 C   0  0  0  0  0  0  0  0  0  0  0  0
    2.7859    4.1339    0.3145 C   0  0  0  0  0  0  0  0  0  0  0  0
    2.8156    5.5812    0.8097 C   0  0  0  0  0  0  0  0  0  0  0  0
    1.3905    3.5472    0.5372 C   0  0  0  0  0  0  0  0  0  0  0  0
    1.3940    2.0649    0.1583 C   0  0  0  0  0  0  0  0  0  0  0  0
   -0.0014    1.4783    0.3810 C   0  0  0  0  0  0  0  0  0  0  0  0
    0.0021   -0.0041    0.0020 C   0  0  1  0  0  0  0  0  0  0  0  0
    0.4264   -0.1232   -0.9949 H   0  0  0  0  0  0  0  0  0  0  0  0
    0.8443   -0.7866    1.0116 C   0  0  0  0  0  0  0  0  0  0  0  0
    0.9440   -2.1495    0.5939 O   0  0  0  0  0  0  0  0  0  0  0  0
    1.7647   -3.0254    1.5298 S   0  0  0  0  0  0  0  0  0  0  0  0
    1.9366   -4.2731    0.8718 O   0  0  0  0  0  0  0  0  0  0  0  0
    2.8631   -2.2362    1.9656 O   0  0  0  0  0  0  0  0  0  0  0  0
   -1.4257   -0.5342    0.0128 C   0  0  2  0  0  0  0  0  0  0  0  0
   -1.9412   -0.1380    0.9051 H   0  0  0  0  0  0  0  0  0  0  0  0
   -1.4325   -2.0740    0.0940 C   0  0  0  0  0  0  0  0  0  0  0  0
   -2.5658   -2.5364   -0.8430 C   0  0  0  0  0  0  0  0  0  0  0  0
   -2.6334   -1.4461   -1.9449 C   0  0  1  0  0  0  0  0  0  0  0  0
   -3.6755   -1.3553   -2.3231 H   0  0  0  0  0  0  0  0  0  0  0  0
   -2.2313   -0.1551   -1.2274 C   0  0  2  0  0  0  0  0  0  0  0  0
   -1.6156    0.9014   -2.1056 C   0  0  0  0  0  0  0  0  0  0  0  0
   -0.6462    0.3623   -3.1498 C   0  0  0  0  0  0  0  0  0  0  0  0
   -1.3848   -0.6831   -3.9923 C   0  0  2  0  0  0  0  0  0  0  0  0
   -2.3115   -0.2486   -4.3760 H   0  0  0  0  0  0  0  0  0  0  0  0
   -1.7174   -1.8648   -3.0871 C   0  0  1  0  0  0  0  0  0  0  0  0
   -2.2689   -2.6125   -3.6823 H   0  0  0  0  0  0  0  0  0  0  0  0
   -0.4428   -2.5297   -2.5786 C   0  0  0  0  0  0  0  0  0  0  0  0
    0.4135   -2.9886   -3.7646 C   0  0  0  0  0  0  0  0  0  0  0  0
    0.7585   -1.7848   -4.6362 C   0  0  2  0  0  0  0  0  0  0  0  0
    1.3006   -1.0542   -4.0175 H   0  0  0  0  0  0  0  0  0  0  0  0
   -0.5086   -1.1221   -5.1681 C   0  0  2  0  0  0  0  0  0  0  0  0
   -0.1267    0.1045   -6.0029 C   0  0  0  0  0  0  0  0  0  0  0  0
    0.8076   -0.2886   -7.1450 C   0  0  0  0  0  0  0  0  0  0  0  0
    2.0630   -0.9645   -6.5953 C   0  0  1  0  0  0  0  0  0  0  0  0
    2.5986   -0.2661   -5.9508 H   0  0  0  0  0  0  0  0  0  0  0  0
    1.6735   -2.2030   -5.7852 C   0  0  0  0  0  0  0  0  0  0  0  0
    2.9103   -1.3528   -7.6794 O   0  0  0  0  0  0  0  0  0  0  0  0
    3.9938   -0.3372   -8.0127 S   0  0  0  0  0  0  0  0  0  0  0  0
    4.5995   -0.7718   -9.2225 O   0  0  0  0  0  0  0  0  0  0  0  0
    3.4024    0.9475   -7.8755 O   0  0  0  0  0  0  0  0  0  0  0  0
   -1.3018   -2.0902   -6.0499 C   0  0  0  0  0  0  0  0  0  0  0  0
   -3.5542    0.4676   -0.6974 C   0  0  0  0  0  0  0  0  0  0  0  0
    2.3882    4.6863   -1.7294 H   0  0  0  0  0  0  0  0  0  0  0  0
    4.1159    4.5163   -1.3364 H   0  0  0  0  0  0  0  0  0  0  0  0
    3.1006    3.0673   -1.5305 H   0  0  0  0  0  0  0  0  0  0  0  0
    3.5194    3.5460    0.8662 H   0  0  0  0  0  0  0  0  0  0  0  0
    2.5763    5.6065    1.8728 H   0  0  0  0  0  0  0  0  0  0  0  0
    3.8097    5.9991    0.6510 H   0  0  0  0  0  0  0  0  0  0  0  0
    2.0820    6.1691    0.2580 H   0  0  0  0  0  0  0  0  0  0  0  0
    0.6694    4.0792   -0.0834 H   0  0  0  0  0  0  0  0  0  0  0  0
    1.1149    3.6533    1.5865 H   0  0  0  0  0  0  0  0  0  0  0  0
    2.1150    1.5329    0.7789 H   0  0  0  0  0  0  0  0  0  0  0  0
    1.6695    1.9588   -0.8910 H   0  0  0  0  0  0  0  0  0  0  0  0
   -0.7225    2.0102   -0.2396 H   0  0  0  0  0  0  0  0  0  0  0  0
   -0.2770    1.5844    1.4302 H   0  0  0  0  0  0  0  0  0  0  0  0
    1.8415   -0.3502    1.0686 H   0  0  0  0  0  0  0  0  0  0  0  0
    0.3711   -0.7408    1.9925 H   0  0  0  0  0  0  0  0  0  0  0  0
   -0.4755   -2.4772   -0.2259 H   0  0  0  0  0  0  0  0  0  0  0  0
   -1.6427   -2.3900    1.1180 H   0  0  0  0  0  0  0  0  0  0  0  0
   -2.3469   -3.5146   -1.2696 H   0  0  0  0  0  0  0  0  0  0  0  0
   -3.5123   -2.5847   -0.2950 H   0  0  0  0  0  0  0  0  0  0  0  0
   -2.4401    1.4000   -2.6481 H   0  0  0  0  0  0  0  0  0  0  0  0
   -1.1386    1.6771   -1.5126 H   0  0  0  0  0  0  0  0  0  0  0  0
   -0.3221    1.1870   -3.7908 H   0  0  0  0  0  0  0  0  0  0  0  0
    0.2247   -0.0837   -2.6787 H   0  0  0  0  0  0  0  0  0  0  0  0
   -0.6926   -3.4057   -1.9771 H   0  0  0  0  0  0  0  0  0  0  0  0
    0.1356   -1.8318   -1.9779 H   0  0  0  0  0  0  0  0  0  0  0  0
   -0.1174   -3.7448   -4.3337 H   0  0  0  0  0  0  0  0  0  0  0  0
    1.3392   -3.4269   -3.3773 H   0  0  0  0  0  0  0  0  0  0  0  0
   -1.0344    0.5516   -6.4139 H   0  0  0  0  0  0  0  0  0  0  0  0
    0.3760    0.8357   -5.3690 H   0  0  0  0  0  0  0  0  0  0  0  0
    0.3047   -0.9507   -7.8451 H   0  0  0  0  0  0  0  0  0  0  0  0
    1.1049    0.6192   -7.6844 H   0  0  0  0  0  0  0  0  0  0  0  0
    1.1847   -2.9285   -6.4280 H   0  0  0  0  0  0  0  0  0  0  0  0
    2.5813   -2.6550   -5.3727 H   0  0  0  0  0  0  0  0  0  0  0  0
   -2.1954   -1.5912   -6.4248 H   0  0  0  0  0  0  0  0  0  0  0  0
   -0.6832   -2.4069   -6.8896 H   0  0  0  0  0  0  0  0  0  0  0  0
   -1.5917   -2.9619   -5.4630 H   0  0  0  0  0  0  0  0  0  0  0  0
   -3.3274    1.3586   -0.1120 H   0  0  0  0  0  0  0  0  0  0  0  0
   -4.1911    0.7385   -1.5395 H   0  0  0  0  0  0  0  0  0  0  0  0
   -4.0712   -0.2579   -0.0694 H   0  0  0  0  0  0  0  0  0  0  0  0
    0.9088   -3.2961    2.7589 O   0  0  0  0  0  1  0  0  0  0  0  0
    5.0586   -0.4437   -6.9304 O   0  0  0  0  0  1  0  0  0  0  0  0
  1  2  1  0  0  0  0
  1 43  1  0  0  0  0
  1 44  1  0  0  0  0
  1 45  1  0  0  0  0
  2  3  1  0  0  0  0
  2  4  1  0  0  0  0
  2 46  1  0  0  0  0
  3 47  1  0  0  0  0
  3 48  1  0  0  0  0
  3 49  1  0  0  0  0
  4  5  1  0  0  0  0
  4 50  1  0  0  0  0
  4 51  1  0  0  0  0
  5  6  1  0  0  0  0
  5 52  1  0  0  0  0
  5 53  1  0  0  0  0
  6  7  1  0  0  0  0
  6 54  1  0  0  0  0
  6 55  1  0  0  0  0
  7  8  1  6  0  0  0
  7  9  1  0  0  0  0
  7 14  1  0  0  0  0
  9 10  1  0  0  0  0
  9 56  1  0  0  0  0
  9 57  1  0  0  0  0
 10 11  1  0  0  0  0
 11 12  2  0  0  0  0
 11 13  2  0  0  0  0
 11 82  1  0  0  0  0
 14 15  1  1  0  0  0
 14 20  1  0  0  0  0
 14 16  1  0  0  0  0
 16 17  1  0  0  0  0
 16 58  1  0  0  0  0
 16 59  1  0  0  0  0
 17 18  1  0  0  0  0
 17 60  1  0  0  0  0
 17 61  1  0  0  0  0
 18 19  1  6  0  0  0
 18 25  1  0  0  0  0
 18 20  1  0  0  0  0
 20 21  1  0  0  0  0
 20 42  1  1  0  0  0
 21 22  1  0  0  0  0
 21 62  1  0  0  0  0
 21 63  1  0  0  0  0
 22 23  1  0  0  0  0
 22 64  1  0  0  0  0
 22 65  1  0  0  0  0
 23 24  1  6  0  0  0
 23 31  1  0  0  0  0
 23 25  1  0  0  0  0
 25 26  1  6  0  0  0
 25 27  1  0  0  0  0
 27 28  1  0  0  0  0
 27 66  1  0  0  0  0
 27 67  1  0  0  0  0
 28 29  1  0  0  0  0
 28 68  1  0  0  0  0
 28 69  1  0  0  0  0
 29 30  1  1  0  0  0
 29 36  1  0  0  0  0
 29 31  1  0  0  0  0
 31 32  1  0  0  0  0
 31 41  1  6  0  0  0
 32 33  1  0  0  0  0
 32 70  1  0  0  0  0
 32 71  1  0  0  0  0
 33 34  1  0  0  0  0
 33 72  1  0  0  0  0
 33 73  1  0  0  0  0
 34 35  1  1  0  0  0
 34 36  1  0  0  0  0
 34 37  1  0  0  0  0
 36 74  1  0  0  0  0
 36 75  1  0  0  0  0
 37 38  1  0  0  0  0
 38 39  2  0  0  0  0
 38 40  2  0  0  0  0
 38 83  1  0  0  0  0
 41 76  1  0  0  0  0
 41 77  1  0  0  0  0
 41 78  1  0  0  0  0
 42 79  1  0  0  0  0
 42 80  1  0  0  0  0
 42 81  1  0  0  0  0
M  END
$$$$
ZINC09331953
 OpenBabel01252620473D

 50 52  0  0  0  0  0  0  0  0999 V2000
   -0.9943   -0.3899    3.0823 C   0  0  0  0  0  0  0  0  0  0  0  0
   -0.6428   -1.1972    1.9568 O   0  0  0  0  0  0  0  0  0  0  0  0
   -1.5243   -1.2311    0.9218 C   0  0  0  0  0  0  0  0  0  0  0  0
   -2.6989   -0.4982    0.9874 C   0  0  0  0  0  0  0  0  0  0  0  0
   -3.5988   -0.5327   -0.0687 C   0  0  0  0  0  0  0  0  0  0  0  0
   -3.3239   -1.3012   -1.1912 C   0  0  0  0  0  0  0  0  0  0  0  0
   -2.1501   -2.0352   -1.2587 C   0  0  0  0  0  0  0  0  0  0  0  0
   -1.2451   -1.9962   -0.2045 C   0  0  0  0  0  0  0  0  0  0  0  0
   -0.0891   -2.7120   -0.2722 O   0  0  0  0  0  0  0  0  0  0  0  0
   -0.1245   -4.0503    0.2275 C   0  0  0  0  0  0  0  0  0  0  0  0
   -1.8814   -2.7889   -2.3583 O   0  0  0  0  0  0  0  0  0  0  0  0
   -2.8531   -2.7774   -3.4060 C   0  0  0  0  0  0  0  0  0  0  0  0
   -4.7871    0.2093   -0.0013 N   0  0  0  0  0  0  0  0  0  0  0  0
   -5.9738   -0.4265   -0.1041 C   0  0  0  0  0  0  0  0  0  0  0  0
   -6.0296   -1.6331   -0.2544 O   0  0  0  0  0  0  0  0  0  0  0  0
   -7.1994    0.3885   -0.0280 C   0  0  0  0  0  0  0  0  0  0  0  0
   -8.4582   -0.1854   -0.1242 C   0  0  0  0  0  0  0  0  0  0  0  0
   -9.5500    0.5973   -0.2102 N   0  0  0  0  0  0  0  0  0  0  0  0
  -10.8274    0.0222   -0.1920 N   0  0  0  0  0  0  0  0  0  0  0  0
  -11.9205    0.8059   -0.2782 C   0  0  0  0  0  0  0  0  0  0  0  0
  -11.7981    2.0112   -0.3716 O   0  0  0  0  0  0  0  0  0  0  0  0
  -13.2713    0.1978   -0.2590 C   0  0  0  0  0  0  0  0  0  0  0  0
  -13.4346   -1.1863   -0.1464 C   0  0  0  0  0  0  0  0  0  0  0  0
  -14.7125   -1.7110   -0.1325 C   0  0  0  0  0  0  0  0  0  0  0  0
  -15.7675   -0.9261   -0.2236 N   0  0  0  0  0  0  0  0  0  0  0  0
  -15.6581    0.3831   -0.3312 C   0  0  0  0  0  0  0  0  0  0  0  0
  -14.4183    0.9924   -0.3472 C   0  0  0  0  0  0  0  0  0  0  0  0
   -7.0280    1.8361    0.1549 C   0  0  0  0  0  0  0  0  0  0  0  0
   -8.0990    2.6533    0.2349 O   0  5  0  0  0  0  0  0  0  0  0  0
   -5.7996    2.3203    0.2398 N   0  0  0  0  0  0  0  0  0  0  0  0
   -4.7262    1.5381    0.1698 C   0  0  0  0  0  0  0  0  0  0  0  0
   -3.6278    2.0575    0.2610 O   0  0  0  0  0  0  0  0  0  0  0  0
   -0.2072   -0.4517    3.8338 H   0  0  0  0  0  0  0  0  0  0  0  0
   -1.1122    0.6459    2.7639 H   0  0  0  0  0  0  0  0  0  0  0  0
   -1.9318   -0.7482    3.5077 H   0  0  0  0  0  0  0  0  0  0  0  0
   -2.9141    0.0996    1.8607 H   0  0  0  0  0  0  0  0  0  0  0  0
   -4.0249   -1.3276   -2.0123 H   0  0  0  0  0  0  0  0  0  0  0  0
    0.8589   -4.5066    0.1141 H   0  0  0  0  0  0  0  0  0  0  0  0
   -0.3994   -4.0371    1.2822 H   0  0  0  0  0  0  0  0  0  0  0  0
   -0.8599   -4.6279   -0.3324 H   0  0  0  0  0  0  0  0  0  0  0  0
   -3.8045   -3.1466   -3.0232 H   0  0  0  0  0  0  0  0  0  0  0  0
   -2.9798   -1.7588   -3.7729 H   0  0  0  0  0  0  0  0  0  0  0  0
   -2.5162   -3.4179   -4.2210 H   0  0  0  0  0  0  0  0  0  0  0  0
   -8.5626   -1.2603   -0.1300 H   0  0  0  0  0  0  0  0  0  0  0  0
   -9.4523    1.5595   -0.2847 H   0  0  0  0  0  0  0  0  0  0  0  0
  -10.9251   -0.9400   -0.1175 H   0  0  0  0  0  0  0  0  0  0  0  0
  -12.5747   -1.8354   -0.0717 H   0  0  0  0  0  0  0  0  0  0  0  0
  -14.8489   -2.7789   -0.0463 H   0  0  0  0  0  0  0  0  0  0  0  0
  -16.5498    0.9880   -0.4036 H   0  0  0  0  0  0  0  0  0  0  0  0
  -14.3362    2.0660   -0.4309 H   0  0  0  0  0  0  0  0  0  0  0  0
  1  2  1  0  0  0  0
  1 33  1  0  0  0  0
  1 34  1  0  0  0  0
  1 35  1  0  0  0  0
  2  3  1  0  0  0  0
  3  8  2  0  0  0  0
  3  4  1  0  0  0  0
  4  5  2  0  0  0  0
  4 36  1  0  0  0  0
  5  6  1  0  0  0  0
  5 13  1  0  0  0  0
  6  7  2  0  0  0  0
  6 37  1  0  0  0  0
  7  8  1  0  0  0  0
  7 11  1  0  0  0  0
  8  9  1  0  0  0  0
  9 10  1  0  0  0  0
 10 38  1  0  0  0  0
 10 39  1  0  0  0  0
 10 40  1  0  0  0  0
 11 12  1  0  0  0  0
 12 41  1  0  0  0  0
 12 42  1  0  0  0  0
 12 43  1  0  0  0  0
 13 31  1  0  0  0  0
 13 14  1  0  0  0  0
 14 15  2  0  0  0  0
 14 16  1  0  0  0  0
 16 17  2  0  0  0  0
 16 28  1  0  0  0  0
 17 18  1  0  0  0  0
 17 44  1  0  0  0  0
 18 19  1  0  0  0  0
 18 45  1  0  0  0  0
 19 20  1  0  0  0  0
 19 46  1  0  0  0  0
 20 21  2  0  0  0  0
 20 22  1  0  0  0  0
 22 27  2  0  0  0  0
 22 23  1  0  0  0  0
 23 24  2  0  0  0  0
 23 47  1  0  0  0  0
 24 25  1  0  0  0  0
 24 48  1  0  0  0  0
 25 26  2  0  0  0  0
 26 27  1  0  0  0  0
 26 49  1  0  0  0  0
 27 50  1  0  0  0  0
 28 29  1  0  0  0  0
 28 30  2  0  0  0  0
 30 31  1  0  0  0  0
 31 32  2  0  0  0  0
M  CHG  1  29  -1
M  END
$$$$
ZINC16909953
 OpenBabel01252620473D

 40 42  0  0  0  0  0  0  0  0999 V2000
    3.3932    0.9819   -5.2266 C   0  0  0  0  0  0  0  0  0  0  0  0
    3.7190    0.0046   -6.1532 C   0  0  0  0  0  0  0  0  0  0  0  0
    4.4716   -1.0920   -5.7789 C   0  0  0  0  0  0  0  0  0  0  0  0
    4.9113   -1.2199   -4.4712 C   0  0  0  0  0  0  0  0  0  0  0  0
    4.5794   -0.2349   -3.5265 C   0  0  0  0  0  0  0  0  0  0  0  0
    3.8166    0.8708   -3.9205 C   0  0  0  0  0  0  0  0  0  0  0  0
    5.0345   -0.3611   -2.1367 C   0  0  0  0  0  0  0  0  0  0  0  0
    4.1953   -0.0486   -1.1167 C   0  0  0  0  0  0  0  0  0  0  0  0
    2.7588    0.2895   -1.1500 C   0  0  0  0  0  0  0  0  0  0  0  0
    2.1340    0.3222   -2.1940 O   0  0  0  0  0  0  0  0  0  0  0  0
    2.1850    0.5545    0.0115 N   0  0  0  0  0  0  0  0  0  0  0  0
    2.8822    0.5220    1.1654 C   0  0  0  0  0  0  0  0  0  0  0  0
    2.4870    0.7470    2.2935 O   0  0  0  0  0  0  0  0  0  0  0  0
    4.5258    0.0667    0.6364 S   0  0  0  0  0  0  0  0  0  0  0  0
    0.8226    0.8822    0.0435 C   0  0  0  0  0  0  0  0  0  0  0  0
   -0.1302   -0.1176    0.1879 C   0  0  0  0  0  0  0  0  0  0  0  0
   -1.4720    0.2079    0.2142 C   0  0  0  0  0  0  0  0  0  0  0  0
   -1.8667    1.5291    0.1074 C   0  0  0  0  0  0  0  0  0  0  0  0
   -0.9204    2.5267   -0.0365 C   0  0  0  0  0  0  0  0  0  0  0  0
    0.4230    2.2068   -0.0688 C   0  0  0  0  0  0  0  0  0  0  0  0
    1.4539    3.2948   -0.2262 C   0  0  0  0  0  0  0  0  0  0  0  0
    0.8128    4.5348   -0.3185 F   0  0  0  0  0  0  0  0  0  0  0  0
    2.3074    3.2924    0.8823 F   0  0  0  0  0  0  0  0  0  0  0  0
    2.1984    3.0671   -1.3885 F   0  0  0  0  0  0  0  0  0  0  0  0
    5.6553   -2.2939   -4.1039 O   0  0  0  0  0  0  0  0  0  0  0  0
    5.9533   -3.2545   -5.1191 C   0  0  0  0  0  0  0  0  0  0  0  0
    6.7813   -4.3674   -4.5300 C   0  0  0  0  0  0  0  0  0  0  0  0
    7.0850   -4.3407   -3.3609 O   0  0  0  0  0  0  0  0  0  0  0  0
    2.8047    1.8352   -5.5300 H   0  0  0  0  0  0  0  0  0  0  0  0
    3.3827    0.1008   -7.1750 H   0  0  0  0  0  0  0  0  0  0  0  0
    4.7212   -1.8488   -6.5080 H   0  0  0  0  0  0  0  0  0  0  0  0
    3.5608    1.6353   -3.2018 H   0  0  0  0  0  0  0  0  0  0  0  0
    6.0372   -0.7026   -1.9257 H   0  0  0  0  0  0  0  0  0  0  0  0
    0.1776   -1.1491    0.2751 H   0  0  0  0  0  0  0  0  0  0  0  0
   -2.2137   -0.5696    0.3225 H   0  0  0  0  0  0  0  0  0  0  0  0
   -2.9165    1.7816    0.1324 H   0  0  0  0  0  0  0  0  0  0  0  0
   -1.2319    3.5571   -0.1241 H   0  0  0  0  0  0  0  0  0  0  0  0
    5.0242   -3.6638   -5.5159 H   0  0  0  0  0  0  0  0  0  0  0  0
    6.5107   -2.7730   -5.9225 H   0  0  0  0  0  0  0  0  0  0  0  0
    7.1813   -5.3884   -5.3043 O   0  0  0  0  0  1  0  0  0  0  0  0
  1  6  2  0  0  0  0
  1  2  1  0  0  0  0
  1 29  1  0  0  0  0
  2  3  2  0  0  0  0
  2 30  1  0  0  0  0
  3  4  1  0  0  0  0
  3 31  1  0  0  0  0
  4  5  2  0  0  0  0
  4 25  1  0  0  0  0
  5  6  1  0  0  0  0
  5  7  1  0  0  0  0
  6 32  1  0  0  0  0
  7  8  2  0  0  0  0
  7 33  1  0  0  0  0
  8 14  1  0  0  0  0
  8  9  1  0  0  0  0
  9 10  2  0  0  0  0
  9 11  1  0  0  0  0
 11 12  1  0  0  0  0
 11 15  1  0  0  0  0
 12 13  2  0  0  0  0
 12 14  1  0  0  0  0
 15 20  2  0  0  0  0
 15 16  1  0  0  0  0
 16 17  2  0  0  0  0
 16 34  1  0  0  0  0
 17 18  1  0  0  0  0
 17 35  1  0  0  0  0
 18 19  2  0  0  0  0
 18 36  1  0  0  0  0
 19 20  1  0  0  0  0
 19 37  1  0  0  0  0
 20 21  1  0  0  0  0
 21 22  1  0  0  0  0
 21 23  1  0  0  0  0
 21 24  1  0  0  0  0
 25 26  1  0  0  0  0
 26 27  1  0  0  0  0
 26 38  1  0  0  0  0
 26 39  1  0  0  0  0
 27 28  2  0  0  0  0
 27 40  1  0  0  0  0
M  END
$$$$
ZINC40100718
 OpenBabel01252620473D

 66 68  0  0  1  0  0  0  0  0999 V2000
   -1.5722    1.8246    3.2136 C   0  0  0  0  0  0  0  0  0  0  0  0
   -1.6846    0.3098    3.3967 C   0  0  0  0  0  0  0  0  0  0  0  0
   -0.3776   -0.2681    3.3986 O   0  0  0  0  0  0  0  0  0  0  0  0
   -0.2993   -1.6162    3.5526 C   0  0  0  0  0  0  0  0  0  0  0  0
   -1.4590   -2.3673    3.6933 C   0  0  0  0  0  0  0  0  0  0  0  0
   -1.3857   -3.7391    3.8507 C   0  0  0  0  0  0  0  0  0  0  0  0
   -0.1594   -4.3712    3.8692 C   0  0  0  0  0  0  0  0  0  0  0  0
    1.0122   -3.6246    3.7281 C   0  0  0  0  0  0  0  0  0  0  0  0
    0.9361   -2.2404    3.5635 C   0  0  0  0  0  0  0  0  0  0  0  0
    2.3284   -4.2984    3.7473 C   0  0  0  0  0  0  0  0  0  0  0  0
    3.3435   -3.6560    3.5544 O   0  0  0  0  0  0  0  0  0  0  0  0
    2.4101   -5.7401    3.9989 C   0  0  0  0  0  0  0  0  0  0  0  0
    2.9525   -6.3409    5.0839 C   0  0  0  0  0  0  0  0  0  0  0  0
    2.8278   -7.8069    4.9401 C   0  0  0  0  0  0  0  0  0  0  0  0
    3.2199   -8.6229    5.7504 O   0  0  0  0  0  0  0  0  0  0  0  0
    2.2153   -8.1039    3.7796 N   0  0  0  0  0  0  0  0  0  0  0  0
    1.8991   -6.8420    3.1003 C   0  0  2  0  0  0  0  0  0  0  0  0
    0.8218   -6.7463    2.9653 H   0  0  0  0  0  0  0  0  0  0  0  0
    2.5961   -6.7869    1.7653 C   0  0  0  0  0  0  0  0  0  0  0  0
    3.8417   -7.3668    1.6136 C   0  0  0  0  0  0  0  0  0  0  0  0
    4.4866   -7.3179    0.3870 C   0  0  0  0  0  0  0  0  0  0  0  0
    3.8787   -6.6851   -0.6908 C   0  0  0  0  0  0  0  0  0  0  0  0
    2.6262   -6.1037   -0.5343 C   0  0  0  0  0  0  0  0  0  0  0  0
    1.9857   -6.1615    0.6943 C   0  0  0  0  0  0  0  0  0  0  0  0
    2.0272   -5.4833   -1.5859 O   0  0  0  0  0  0  0  0  0  0  0  0
    0.6933   -5.0110   -1.3865 C   0  0  0  0  0  0  0  0  0  0  0  0
    4.5086   -6.6346   -1.8962 O   0  0  0  0  0  0  0  0  0  0  0  0
    4.2578   -7.7086   -2.8048 C   0  0  0  0  0  0  0  0  0  0  0  0
    5.7124   -7.8880    0.2389 O   0  0  0  0  0  0  0  0  0  0  0  0
    6.2769   -8.5205    1.3893 C   0  0  0  0  0  0  0  0  0  0  0  0
    1.9129   -9.4490    3.2841 C   0  0  0  0  0  0  0  0  0  0  0  0
    0.5277   -9.8740    3.7754 C   0  0  0  0  0  0  0  0  0  0  0  0
   -0.4647   -9.0253    3.1950 O   0  0  0  0  0  0  0  0  0  0  0  0
   -1.8014   -9.3389    3.5910 C   0  0  0  0  0  0  0  0  0  0  0  0
   -2.7743   -8.3721    2.9129 C   0  0  0  0  0  0  0  0  0  0  0  0
   -2.7411   -8.5765    1.4990 O   0  0  0  0  0  0  0  0  0  0  0  0
    3.5194   -5.7015    6.1326 O   0  5  0  0  0  0  0  0  0  0  0  0
   -1.0782    2.0404    2.2662 H   0  0  0  0  0  0  0  0  0  0  0  0
   -2.5691    2.2654    3.2121 H   0  0  0  0  0  0  0  0  0  0  0  0
   -0.9892    2.2472    4.0319 H   0  0  0  0  0  0  0  0  0  0  0  0
   -2.1786    0.0940    4.3441 H   0  0  0  0  0  0  0  0  0  0  0  0
   -2.2675   -0.1129    2.5784 H   0  0  0  0  0  0  0  0  0  0  0  0
   -2.4218   -1.8780    3.6799 H   0  0  0  0  0  0  0  0  0  0  0  0
   -2.2912   -4.3175    3.9600 H   0  0  0  0  0  0  0  0  0  0  0  0
   -0.1057   -5.4427    3.9931 H   0  0  0  0  0  0  0  0  0  0  0  0
    1.8384   -1.6580    3.4498 H   0  0  0  0  0  0  0  0  0  0  0  0
    4.3134   -7.8584    2.4516 H   0  0  0  0  0  0  0  0  0  0  0  0
    1.0104   -5.7137    0.8156 H   0  0  0  0  0  0  0  0  0  0  0  0
    0.6957   -4.2225   -0.6340 H   0  0  0  0  0  0  0  0  0  0  0  0
    0.3035   -4.6165   -2.3249 H   0  0  0  0  0  0  0  0  0  0  0  0
    0.0633   -5.8338   -1.0486 H   0  0  0  0  0  0  0  0  0  0  0  0
    4.5697   -8.6491   -2.3505 H   0  0  0  0  0  0  0  0  0  0  0  0
    3.1926   -7.7507   -3.0324 H   0  0  0  0  0  0  0  0  0  0  0  0
    4.8197   -7.5453   -3.7244 H   0  0  0  0  0  0  0  0  0  0  0  0
    7.2532   -8.9331    1.1347 H   0  0  0  0  0  0  0  0  0  0  0  0
    6.3892   -7.7878    2.1884 H   0  0  0  0  0  0  0  0  0  0  0  0
    5.6188   -9.3232    1.7222 H   0  0  0  0  0  0  0  0  0  0  0  0
    1.9268   -9.4463    2.1942 H   0  0  0  0  0  0  0  0  0  0  0  0
    2.6609  -10.1496    3.6553 H   0  0  0  0  0  0  0  0  0  0  0  0
    0.3392  -10.9068    3.4821 H   0  0  0  0  0  0  0  0  0  0  0  0
    0.4863   -9.7914    4.8615 H   0  0  0  0  0  0  0  0  0  0  0  0
   -2.0382  -10.3606    3.2939 H   0  0  0  0  0  0  0  0  0  0  0  0
   -1.8912   -9.2452    4.6732 H   0  0  0  0  0  0  0  0  0  0  0  0
   -3.7835   -8.5534    3.2827 H   0  0  0  0  0  0  0  0  0  0  0  0
   -2.4835   -7.3462    3.1387 H   0  0  0  0  0  0  0  0  0  0  0  0
   -3.3350   -7.9960    1.0037 H   0  0  0  0  0  0  0  0  0  0  0  0
  1  2  1  0  0  0  0
  1 38  1  0  0  0  0
  1 39  1  0  0  0  0
  1 40  1  0  0  0  0
  2  3  1  0  0  0  0
  2 41  1  0  0  0  0
  2 42  1  0  0  0  0
  3  4  1  0  0  0  0
  4  9  2  0  0  0  0
  4  5  1  0  0  0  0
  5  6  2  0  0  0  0
  5 43  1  0  0  0  0
  6  7  1  0  0  0  0
  6 44  1  0  0  0  0
  7  8  2  0  0  0  0
  7 45  1  0  0  0  0
  8  9  1  0  0  0  0
  8 10  1  0  0  0  0
  9 46  1  0  0  0  0
 10 11  2  0  0  0  0
 10 12  1  0  0  0  0
 12 17  1  0  0  0  0
 12 13  2  0  0  0  0
 13 14  1  0  0  0  0
 13 37  1  0  0  0  0
 14 15  2  0  0  0  0
 14 16  1  0  0  0  0
 16 17  1  0  0  0  0
 16 31  1  0  0  0  0
 17 18  1  6  0  0  0
 17 19  1  0  0  0  0
 19 24  2  0  0  0  0
 19 20  1  0  0  0  0
 20 21  2  0  0  0  0
 20 47  1  0  0  0  0
 21 22  1  0  0  0  0
 21 29  1  0  0  0  0
 22 23  2  0  0  0  0
 22 27  1  0  0  0  0
 23 24  1  0  0  0  0
 23 25  1  0  0  0  0
 24 48  1  0  0  0  0
 25 26  1  0  0  0  0
 26 49  1  0  0  0  0
 26 50  1  0  0  0  0
 26 51  1  0  0  0  0
 27 28  1  0  0  0  0
 28 52  1  0  0  0  0
 28 53  1  0  0  0  0
 28 54  1  0  0  0  0
 29 30  1  0  0  0  0
 30 55  1  0  0  0  0
 30 56  1  0  0  0  0
 30 57  1  0  0  0  0
 31 32  1  0  0  0  0
 31 58  1  0  0  0  0
 31 59  1  0  0  0  0
 32 33  1  0  0  0  0
 32 60  1  0  0  0  0
 32 61  1  0  0  0  0
 33 34  1  0  0  0  0
 34 35  1  0  0  0  0
 34 62  1  0  0  0  0
 34 63  1  0  0  0  0
 35 36  1  0  0  0  0
 35 64  1  0  0  0  0
 35 65  1  0  0  0  0
 36 66  1  0  0  0  0
M  CHG  1  37  -1
M  END
$$$$
ZINC13008020
 OpenBabel01252620473D

 39 40  0  0  0  0  0  0  0  0999 V2000
    1.8832   -1.7717    1.9384 C   0  0  0  0  0  0  0  0  0  0  0  0
    0.8053   -1.5071    0.9190 C   0  0  0  0  0  0  0  0  0  0  0  0
    0.8738   -2.1059   -0.3269 C   0  0  0  0  0  0  0  0  0  0  0  0
   -0.1087   -1.8680   -1.2648 C   0  0  0  0  0  0  0  0  0  0  0  0
   -1.1754   -1.0204   -0.9547 C   0  0  0  0  0  0  0  0  0  0  0  0
   -1.2382   -0.4199    0.3051 C   0  0  0  0  0  0  0  0  0  0  0  0
   -0.2509   -0.6711    1.2352 C   0  0  0  0  0  0  0  0  0  0  0  0
   -0.3314    0.0800    2.8270 S   0  0  0  0  0  0  0  0  0  0  0  0
   -1.4829    0.9125    2.8256 O   0  0  0  0  0  0  0  0  0  0  0  0
   -0.1446   -0.9603    3.7768 O   0  0  0  0  0  0  0  0  0  0  0  0
    0.9785    1.0843    2.9613 N   0  0  0  0  0  0  0  0  0  0  0  0
    1.0667    2.2303    2.1621 C   0  0  0  0  0  0  0  0  0  0  0  0
    0.7923    2.1518    0.8031 C   0  0  0  0  0  0  0  0  0  0  0  0
    0.8787    3.2822    0.0143 C   0  0  0  0  0  0  0  0  0  0  0  0
    1.2404    4.4975    0.5798 C   0  0  0  0  0  0  0  0  0  0  0  0
    1.5150    4.5766    1.9395 C   0  0  0  0  0  0  0  0  0  0  0  0
    1.4228    3.4465    2.7295 C   0  0  0  0  0  0  0  0  0  0  0  0
    1.9672    6.0960    2.6469 Cl  0  0  0  0  0  0  0  0  0  0  0  0
    1.3288    5.6437   -0.2206 N   0  0  0  0  0  2  0  0  0  0  0  0
    0.9119    5.5699   -1.8215 S   0  0  0  0  0  0  0  0  0  0  0  0
    1.8153    4.6309   -2.3886 O   0  0  0  0  0  0  0  0  0  0  0  0
   -0.4869    5.3200   -1.8208 O   0  0  0  0  0  0  0  0  0  0  0  0
    1.2495    7.2308   -2.4682 C   0  0  0  0  0  0  0  0  0  0  0  0
   -2.2302   -0.7606   -1.9530 C   0  0  0  0  0  0  0  0  0  0  0  0
   -2.1722   -1.2875   -3.0551 O   0  0  0  0  0  0  0  0  0  0  0  0
   -3.1625   -0.0183   -1.6785 O   0  0  0  0  0  1  0  0  0  0  0  0
    1.5668   -2.5772    2.6011 H   0  0  0  0  0  0  0  0  0  0  0  0
    2.8024   -2.0604    1.4287 H   0  0  0  0  0  0  0  0  0  0  0  0
    2.0602   -0.8688    2.5229 H   0  0  0  0  0  0  0  0  0  0  0  0
    1.6989   -2.7607   -0.5652 H   0  0  0  0  0  0  0  0  0  0  0  0
   -0.0536   -2.3354   -2.2369 H   0  0  0  0  0  0  0  0  0  0  0  0
   -2.0598    0.2363    0.5517 H   0  0  0  0  0  0  0  0  0  0  0  0
    1.6847    0.8784    3.5937 H   0  0  0  0  0  0  0  0  0  0  0  0
    0.5116    1.2065    0.3627 H   0  0  0  0  0  0  0  0  0  0  0  0
    0.6653    3.2207   -1.0426 H   0  0  0  0  0  0  0  0  0  0  0  0
    1.6319    3.5084    3.7872 H   0  0  0  0  0  0  0  0  0  0  0  0
    2.3062    7.4639   -2.3370 H   0  0  0  0  0  0  0  0  0  0  0  0
    0.9986    7.2658   -3.5283 H   0  0  0  0  0  0  0  0  0  0  0  0
    0.6467    7.9606   -1.9278 H   0  0  0  0  0  0  0  0  0  0  0  0
  1  2  1  0  0  0  0
  1 27  1  0  0  0  0
  1 28  1  0  0  0  0
  1 29  1  0  0  0  0
  2  7  2  0  0  0  0
  2  3  1  0  0  0  0
  3  4  2  0  0  0  0
  3 30  1  0  0  0  0
  4  5  1  0  0  0  0
  4 31  1  0  0  0  0
  5  6  2  0  0  0  0
  5 24  1  0  0  0  0
  6  7  1  0  0  0  0
  6 32  1  0  0  0  0
  7  8  1  0  0  0  0
  8  9  2  0  0  0  0
  8 10  2  0  0  0  0
  8 11  1  0  0  0  0
 11 12  1  0  0  0  0
 11 33  1  0  0  0  0
 12 17  2  0  0  0  0
 12 13  1  0  0  0  0
 13 14  2  0  0  0  0
 13 34  1  0  0  0  0
 14 15  1  0  0  0  0
 14 35  1  0  0  0  0
 15 16  2  0  0  0  0
 15 19  1  0  0  0  0
 16 17  1  0  0  0  0
 16 18  1  0  0  0  0
 17 36  1  0  0  0  0
 19 20  1  0  0  0  0
 20 21  2  0  0  0  0
 20 22  2  0  0  0  0
 20 23  1  0  0  0  0
 23 37  1  0  0  0  0
 23 38  1  0  0  0  0
 23 39  1  0  0  0  0
 24 25  2  0  0  0  0
 24 26  1  0  0  0  0
M  END
$$$$
ZINC59248637
 OpenBabel01252620473D

 50 53  0  0  0  0  0  0  0  0999 V2000
   -0.0184    1.5028    0.0103 C   0  0  0  0  0  0  0  0  0  0  0  0
    0.0021   -0.0041    0.0020 C   0  0  0  0  0  0  0  0  0  0  0  0
    0.0080   -0.7768   -1.0978 C   0  0  0  0  0  0  0  0  0  0  0  0
    0.0298   -2.1690   -0.6322 C   0  0  0  0  0  0  0  0  0  0  0  0
    0.0351   -2.1095    0.7473 C   0  0  0  0  0  0  0  0  0  0  0  0
    0.0234   -0.8017    1.1113 N   0  0  0  0  0  0  0  0  0  0  0  0
    0.0293   -0.3368    2.4339 C   0  0  0  0  0  0  0  0  0  0  0  0
    1.1322   -0.5663    3.2426 C   0  0  0  0  0  0  0  0  0  0  0  0
    1.1419   -0.1050    4.5617 C   0  0  0  0  0  0  0  0  0  0  0  0
    0.0408    0.5873    5.0643 C   0  0  0  0  0  0  0  0  0  0  0  0
   -1.0660    0.8163    4.2477 C   0  0  0  0  0  0  0  0  0  0  0  0
   -1.0655    0.3561    2.9281 C   0  0  0  0  0  0  0  0  0  0  0  0
   -2.2342    1.5480    4.7746 C   0  0  0  0  0  0  0  0  0  0  0  0
   -2.2321    1.9539    5.9281 O   0  0  0  0  0  0  0  0  0  0  0  0
   -3.2044    1.7484    4.0577 O   0  0  0  0  0  1  0  0  0  0  0  0
    2.3157   -0.3505    5.4217 C   0  0  0  0  0  0  0  0  0  0  0  0
    3.2808   -0.9581    4.9802 O   0  0  0  0  0  0  0  0  0  0  0  0
    2.3233    0.0535    6.5759 O   0  0  0  0  0  1  0  0  0  0  0  0
    0.0552   -3.2895    1.6845 C   0  0  0  0  0  0  0  0  0  0  0  0
    0.0427   -3.3776   -1.4635 C   0  0  0  0  0  0  0  0  0  0  0  0
    0.0351   -3.2705   -2.8182 C   0  0  0  0  0  0  0  0  0  0  0  0
    0.0391   -4.3313   -3.8388 C   0  0  0  0  0  0  0  0  0  0  0  0
    0.0508   -5.5094   -3.5311 O   0  0  0  0  0  0  0  0  0  0  0  0
    0.0289   -3.9486   -5.1044 N   0  0  0  0  0  0  0  0  0  0  0  0
    0.0153   -2.6102   -5.4326 C   0  0  0  0  0  0  0  0  0  0  0  0
    0.0036   -2.0612   -6.6267 N   0  0  0  0  0  0  0  0  0  0  0  0
   -0.0091   -0.6979   -6.7533 C   0  0  0  0  0  0  0  0  0  0  0  0
   -0.8613    0.0720   -5.9587 C   0  0  0  0  0  0  0  0  0  0  0  0
   -0.8693    1.4451   -6.0904 C   0  0  0  0  0  0  0  0  0  0  0  0
   -0.0345    2.0605   -7.0091 C   0  0  0  0  0  0  0  0  0  0  0  0
    0.8132    1.3020   -7.8001 C   0  0  0  0  0  0  0  0  0  0  0  0
    0.8342   -0.0715   -7.6734 C   0  0  0  0  0  0  0  0  0  0  0  0
   -0.0473    3.4057   -7.1343 F   0  0  0  0  0  0  0  0  0  0  0  0
    0.0098   -1.8043   -3.8394 S   0  0  0  0  0  0  0  0  0  0  0  0
    1.0042    1.8801    0.0026 H   0  0  0  0  0  0  0  0  0  0  0  0
   -0.5455    1.8639   -0.8728 H   0  0  0  0  0  0  0  0  0  0  0  0
   -0.5286    1.8543    0.9071 H   0  0  0  0  0  0  0  0  0  0  0  0
   -0.0016   -0.4395   -2.1237 H   0  0  0  0  0  0  0  0  0  0  0  0
    1.9847   -1.1025    2.8525 H   0  0  0  0  0  0  0  0  0  0  0  0
    0.0450    0.9448    6.0834 H   0  0  0  0  0  0  0  0  0  0  0  0
   -1.9207    0.5366    2.2937 H   0  0  0  0  0  0  0  0  0  0  0  0
    1.0877   -3.5598    1.9062 H   0  0  0  0  0  0  0  0  0  0  0  0
   -0.4584   -3.0275    2.6095 H   0  0  0  0  0  0  0  0  0  0  0  0
   -0.4489   -4.1345    1.2156 H   0  0  0  0  0  0  0  0  0  0  0  0
    0.0582   -4.3524   -0.9989 H   0  0  0  0  0  0  0  0  0  0  0  0
    0.0314   -4.6160   -5.8083 H   0  0  0  0  0  0  0  0  0  0  0  0
   -1.5130   -0.4068   -5.2428 H   0  0  0  0  0  0  0  0  0  0  0  0
   -1.5279    2.0415   -5.4765 H   0  0  0  0  0  0  0  0  0  0  0  0
    1.4615    1.7872   -8.5147 H   0  0  0  0  0  0  0  0  0  0  0  0
    1.4983   -0.6614   -8.2876 H   0  0  0  0  0  0  0  0  0  0  0  0
  1  2  1  0  0  0  0
  1 35  1  0  0  0  0
  1 36  1  0  0  0  0
  1 37  1  0  0  0  0
  2  6  1  0  0  0  0
  2  3  2  0  0  0  0
  3  4  1  0  0  0  0
  3 38  1  0  0  0  0
  4  5  2  0  0  0  0
  4 20  1  0  0  0  0
  5  6  1  0  0  0  0
  5 19  1  0  0  0  0
  6  7  1  0  0  0  0
  7 12  2  0  0  0  0
  7  8  1  0  0  0  0
  8  9  2  0  0  0  0
  8 39  1  0  0  0  0
  9 10  1  0  0  0  0
  9 16  1  0  0  0  0
 10 11  2  0  0  0  0
 10 40  1  0  0  0  0
 11 12  1  0  0  0  0
 11 13  1  0  0  0  0
 12 41  1  0  0  0  0
 13 14  2  0  0  0  0
 13 15  1  0  0  0  0
 16 17  2  0  0  0  0
 16 18  1  0  0  0  0
 19 42  1  0  0  0  0
 19 43  1  0  0  0  0
 19 44  1  0  0  0  0
 20 21  2  0  0  0  0
 20 45  1  0  0  0  0
 21 34  1  0  0  0  0
 21 22  1  0  0  0  0
 22 23  2  0  0  0  0
 22 24  1  0  0  0  0
 24 25  1  0  0  0  0
 24 46  1  0  0  0  0
 25 26  2  0  0  0  0
 25 34  1  0  0  0  0
 26 27  1  0  0  0  0
 27 32  2  0  0  0  0
 27 28  1  0  0  0  0
 28 29  2  0  0  0  0
 28 47  1  0  0  0  0
 29 30  1  0  0  0  0
 29 48  1  0  0  0  0
 30 31  2  0  0  0  0
 30 33  1  0  0  0  0
 31 32  1  0  0  0  0
 31 49  1  0  0  0  0
 32 50  1  0  0  0  0
M  END
$$$$
ZINC62565544
 OpenBabel01252620473D

 43 46  0  0  0  0  0  0  0  0999 V2000
   -0.4263    1.5327    0.0209 C   0  0  0  0  0  0  0  0  0  0  0  0
   -0.2059    0.0423   -0.0096 C   0  0  0  0  0  0  0  0  0  0  0  0
   -0.1510   -0.6441   -1.2538 C   0  0  0  0  0  0  0  0  0  0  0  0
   -0.2794   -0.0461   -2.3085 O   0  0  0  0  0  0  0  0  0  0  0  0
    0.0664   -2.0993   -1.2274 C   0  0  0  0  0  0  0  0  0  0  0  0
    0.1331   -2.8444   -2.4058 C   0  0  0  0  0  0  0  0  0  0  0  0
    0.3391   -4.2098   -2.3345 C   0  0  0  0  0  0  0  0  0  0  0  0
    0.4790   -4.8359   -1.0952 C   0  0  0  0  0  0  0  0  0  0  0  0
    0.4148   -4.1158    0.0634 C   0  0  0  0  0  0  0  0  0  0  0  0
    0.2085   -2.7386    0.0192 C   0  0  0  0  0  0  0  0  0  0  0  0
    0.1425   -1.9966    1.1754 N   0  0  0  0  0  0  0  0  0  0  0  0
   -0.0540   -0.6463    1.1502 C   0  0  0  0  0  0  0  0  0  0  0  0
   -0.1086    0.0925    2.4329 C   0  0  0  0  0  0  0  0  0  0  0  0
   -1.1869    0.3229    2.9600 O   0  0  0  0  0  0  0  0  0  0  0  0
    0.9247    0.4717    2.9642 O   0  0  0  0  0  1  0  0  0  0  0  0
    0.2918   -2.6723    2.4667 C   0  0  0  0  0  0  0  0  0  0  0  0
   -0.5526   -3.9247    2.7105 C   0  0  0  0  0  0  0  0  0  0  0  0
   -0.8936   -2.6197    3.4327 C   0  0  0  0  0  0  0  0  0  0  0  0
    0.4072   -4.9660   -3.5083 N   0  0  0  0  0  0  0  0  0  0  0  0
    0.3941   -4.3173   -4.8291 C   0  0  0  0  0  0  0  0  0  0  0  0
    1.5684   -4.8648   -5.6483 C   0  0  0  0  0  0  0  0  0  0  0  0
    1.5209   -6.2936   -5.6422 O   0  0  0  0  0  0  0  0  0  0  0  0
    1.6640   -6.8785   -4.3456 C   0  0  0  0  0  0  0  0  0  0  0  0
    0.5002   -6.4337   -3.4595 C   0  0  0  0  0  0  0  0  0  0  0  0
    0.5361    2.0413    0.0767 H   0  0  0  0  0  0  0  0  0  0  0  0
   -0.9485    1.8415   -0.8847 H   0  0  0  0  0  0  0  0  0  0  0  0
   -1.0261    1.7935    0.8929 H   0  0  0  0  0  0  0  0  0  0  0  0
    0.0244   -2.3590   -3.3644 H   0  0  0  0  0  0  0  0  0  0  0  0
    0.6395   -5.9030   -1.0518 H   0  0  0  0  0  0  0  0  0  0  0  0
    0.5245   -4.6144    1.0151 H   0  0  0  0  0  0  0  0  0  0  0  0
    1.2930   -2.6484    2.8969 H   0  0  0  0  0  0  0  0  0  0  0  0
   -1.2191   -4.2460    1.9101 H   0  0  0  0  0  0  0  0  0  0  0  0
   -0.1068   -4.7251    3.3010 H   0  0  0  0  0  0  0  0  0  0  0  0
   -0.6721   -2.5616    4.4984 H   0  0  0  0  0  0  0  0  0  0  0  0
   -1.7844   -2.0825    3.1075 H   0  0  0  0  0  0  0  0  0  0  0  0
   -0.5438   -4.5396   -5.3380 H   0  0  0  0  0  0  0  0  0  0  0  0
    0.5009   -3.2391   -4.7096 H   0  0  0  0  0  0  0  0  0  0  0  0
    1.4971   -4.5025   -6.6738 H   0  0  0  0  0  0  0  0  0  0  0  0
    2.5073   -4.5299   -5.2075 H   0  0  0  0  0  0  0  0  0  0  0  0
    1.6615   -7.9649   -4.4339 H   0  0  0  0  0  0  0  0  0  0  0  0
    2.6033   -6.5508   -3.9000 H   0  0  0  0  0  0  0  0  0  0  0  0
    0.6773   -6.7564   -2.4335 H   0  0  0  0  0  0  0  0  0  0  0  0
   -0.4268   -6.8728   -3.8282 H   0  0  0  0  0  0  0  0  0  0  0  0
  1  2  1  0  0  0  0
  1 25  1  0  0  0  0
  1 26  1  0  0  0  0
  1 27  1  0  0  0  0
  2 12  2  0  0  0  0
  2  3  1  0  0  0  0
  3  4  2  0  0  0  0
  3  5  1  0  0  0  0
  5 10  2  0  0  0  0
  5  6  1  0  0  0  0
  6  7  2  0  0  0  0
  6 28  1  0  0  0  0
  7  8  1  0  0  0  0
  7 19  1  0  0  0  0
  8  9  2  0  0  0  0
  8 29  1  0  0  0  0
  9 10  1  0  0  0  0
  9 30  1  0  0  0  0
 10 11  1  0  0  0  0
 11 12  1  0  0  0  0
 11 16  1  0  0  0  0
 12 13  1  0  0  0  0
 13 14  2  0  0  0  0
 13 15  1  0  0  0  0
 16 18  1  0  0  0  0
 16 17  1  0  0  0  0
 16 31  1  0  0  0  0
 17 18  1  0  0  0  0
 17 32  1  0  0  0  0
 17 33  1  0  0  0  0
 18 34  1  0  0  0  0
 18 35  1  0  0  0  0
 19 24  1  0  0  0  0
 19 20  1  0  0  0  0
 20 21  1  0  0  0  0
 20 36  1  0  0  0  0
 20 37  1  0  0  0  0
 21 22  1  0  0  0  0
 21 38  1  0  0  0  0
 21 39  1  0  0  0  0
 22 23  1  0  0  0  0
 23 24  1  0  0  0  0
 23 40  1  0  0  0  0
 23 41  1  0  0  0  0
 24 42  1  0  0  0  0
 24 43  1  0  0  0  0
M  END
$$$$
ZINC19716798
 OpenBabel01252620473D

 46 47  0  0  1  0  0  0  0  0999 V2000
   -1.6273    4.1788   -2.2753 C   0  0  0  0  0  0  0  0  0  0  0  0
   -0.9332    3.4943   -1.0960 C   0  0  0  0  0  0  0  0  0  0  0  0
   -1.5766    3.9569    0.2127 C   0  0  0  0  0  0  0  0  0  0  0  0
   -1.0804    1.9771   -1.2284 C   0  0  2  0  0  0  0  0  0  0  0  0
   -0.5784    1.6183   -2.1390 H   0  0  0  0  0  0  0  0  0  0  0  0
   -2.5652    1.6090   -1.2535 C   0  0  0  0  0  0  0  0  0  0  0  0
   -2.7070    0.1510   -1.2492 N   0  0  0  0  0  0  0  0  0  0  0  0
   -3.9313   -0.4069   -1.1694 C   0  0  0  0  0  0  0  0  0  0  0  0
   -4.9182    0.3001   -1.1010 O   0  0  0  0  0  0  0  0  0  0  0  0
   -4.0740   -1.8752   -1.1651 C   0  0  0  0  0  0  0  0  0  0  0  0
   -2.9467   -2.7009   -1.2491 C   0  0  0  0  0  0  0  0  0  0  0  0
   -3.1336   -4.0715   -1.2308 C   0  0  0  0  0  0  0  0  0  0  0  0
   -4.4164   -4.5822   -1.1415 C   0  0  0  0  0  0  0  0  0  0  0  0
   -5.4649   -3.7856   -1.0683 N   0  0  0  0  0  0  0  0  0  0  0  0
   -5.3418   -2.4691   -1.0768 C   0  0  0  0  0  0  0  0  0  0  0  0
   -6.4465   -1.6893   -1.0001 O   0  5  0  0  0  0  0  0  0  0  0  0
   -4.6190   -6.0754   -1.1276 C   0  0  0  0  0  0  0  0  0  0  0  0
   -5.9886   -6.3603   -1.1479 F   0  0  0  0  0  0  0  0  0  0  0  0
   -4.0087   -6.6393   -2.2531 F   0  0  0  0  0  0  0  0  0  0  0  0
   -4.0480   -6.6128    0.0309 F   0  0  0  0  0  0  0  0  0  0  0  0
   -0.4324    1.3208   -0.0850 N   0  0  0  0  0  0  0  0  0  0  0  0
   -1.3257    1.2932    1.0823 C   0  0  0  0  0  0  0  0  0  0  0  0
   -0.6354    0.5499    2.2289 C   0  0  0  0  0  0  0  0  0  0  0  0
    0.6136    1.1838    2.5179 O   0  0  0  0  0  0  0  0  0  0  0  0
    1.5084    1.2277    1.4031 C   0  0  0  0  0  0  0  0  0  0  0  0
    0.8398    1.9779    0.2481 C   0  0  0  0  0  0  0  0  0  0  0  0
   -1.1647    3.8462   -3.2163 H   0  0  0  0  0  0  0  0  0  0  0  0
   -1.5215    5.2695   -2.1802 H   0  0  0  0  0  0  0  0  0  0  0  0
   -2.6946    3.9127   -2.2772 H   0  0  0  0  0  0  0  0  0  0  0  0
    0.1341    3.7604   -1.0940 H   0  0  0  0  0  0  0  0  0  0  0  0
   -1.0776    3.4649    1.0606 H   0  0  0  0  0  0  0  0  0  0  0  0
   -2.6440    3.6909    0.2107 H   0  0  0  0  0  0  0  0  0  0  0  0
   -1.4708    5.0477    0.3078 H   0  0  0  0  0  0  0  0  0  0  0  0
   -3.0619    2.0284   -0.3661 H   0  0  0  0  0  0  0  0  0  0  0  0
   -3.0295    2.0199   -2.1621 H   0  0  0  0  0  0  0  0  0  0  0  0
   -1.8142   -0.4887   -1.3111 H   0  0  0  0  0  0  0  0  0  0  0  0
   -2.0349   -2.2965   -1.3202 H   0  0  0  0  0  0  0  0  0  0  0  0
   -2.3509   -4.6918   -1.2815 H   0  0  0  0  0  0  0  0  0  0  0  0
   -1.5529    2.3232    1.3946 H   0  0  0  0  0  0  0  0  0  0  0  0
   -2.2596    0.7760    0.8171 H   0  0  0  0  0  0  0  0  0  0  0  0
   -1.2773    0.5760    3.1218 H   0  0  0  0  0  0  0  0  0  0  0  0
   -0.4589   -0.4953    1.9347 H   0  0  0  0  0  0  0  0  0  0  0  0
    2.4324    1.7483    1.6949 H   0  0  0  0  0  0  0  0  0  0  0  0
    1.7497    0.2024    1.0860 H   0  0  0  0  0  0  0  0  0  0  0  0
    1.5004    1.9649   -0.6314 H   0  0  0  0  0  0  0  0  0  0  0  0
    0.6476    3.0190    0.5469 H   0  0  0  0  0  0  0  0  0  0  0  0
  1  2  1  0  0  0  0
  1 27  1  0  0  0  0
  1 28  1  0  0  0  0
  1 29  1  0  0  0  0
  2  3  1  0  0  0  0
  2  4  1  0  0  0  0
  2 30  1  0  0  0  0
  3 31  1  0  0  0  0
  3 32  1  0  0  0  0
  3 33  1  0  0  0  0
  4  5  1  6  0  0  0
  4  6  1  0  0  0  0
  4 21  1  0  0  0  0
  6  7  1  0  0  0  0
  6 34  1  0  0  0  0
  6 35  1  0  0  0  0
  7  8  1  0  0  0  0
  7 36  1  0  0  0  0
  8  9  2  0  0  0  0
  8 10  1  0  0  0  0
 10 11  2  0  0  0  0
 10 15  1  0  0  0  0
 11 12  1  0  0  0  0
 11 37  1  0  0  0  0
 12 13  2  0  0  0  0
 12 38  1  0  0  0  0
 13 14  1  0  0  0  0
 13 17  1  0  0  0  0
 14 15  2  0  0  0  0
 15 16  1  0  0  0  0
 17 18  1  0  0  0  0
 17 19  1  0  0  0  0
 17 20  1  0  0  0  0
 21 26  1  0  0  0  0
 21 22  1  0  0  0  0
 22 23  1  0  0  0  0
 22 39  1  0  0  0  0
 22 40  1  0  0  0  0
 23 24  1  0  0  0  0
 23 41  1  0  0  0  0
 23 42  1  0  0  0  0
 24 25  1  0  0  0  0
 25 26  1  0  0  0  0
 25 43  1  0  0  0  0
 25 44  1  0  0  0  0
 26 45  1  0  0  0  0
 26 46  1  0  0  0  0
M  CHG  1  16  -1
M  END
$$$$
ZINC28568180
 OpenBabel01252620473D

 50 52  0  0  1  0  0  0  0  0999 V2000
   -0.1441    1.4933    0.1305 C   0  0  0  0  0  0  0  0  0  0  0  0
   -0.0589   -0.0096    0.0596 C   0  0  0  0  0  0  0  0  0  0  0  0
   -1.2260   -0.7406   -0.0024 C   0  0  0  0  0  0  0  0  0  0  0  0
   -1.1020   -2.2518   -0.0733 C   0  0  2  0  0  0  0  0  0  0  0  0
   -1.6355   -2.6776    0.7765 H   0  0  0  0  0  0  0  0  0  0  0  0
    0.3136   -2.8007   -0.0680 C   0  0  0  0  0  0  0  0  0  0  0  0
    0.5586   -4.1563   -0.1290 C   0  0  0  0  0  0  0  0  0  0  0  0
   -0.4662   -5.0291   -0.0740 O   0  5  0  0  0  0  0  0  0  0  0  0
    1.8227   -4.6079   -0.2437 O   0  0  0  0  0  0  0  0  0  0  0  0
    2.0029   -6.0243   -0.3014 C   0  0  0  0  0  0  0  0  0  0  0  0
    3.4712   -6.3392   -0.4281 C   0  0  0  0  0  0  0  0  0  0  0  0
    4.0104   -7.2959    0.3143 C   0  0  0  0  0  0  0  0  0  0  0  0
    5.4505   -7.6048    0.1900 C   0  0  0  0  0  0  0  0  0  0  0  0
    6.2464   -6.8873   -0.7038 C   0  0  0  0  0  0  0  0  0  0  0  0
    7.5900   -7.1805   -0.8151 C   0  0  0  0  0  0  0  0  0  0  0  0
    8.1483   -8.1837   -0.0433 C   0  0  0  0  0  0  0  0  0  0  0  0
    7.3647   -8.8991    0.8444 C   0  0  0  0  0  0  0  0  0  0  0  0
    6.0212   -8.6112    0.9701 C   0  0  0  0  0  0  0  0  0  0  0  0
    1.3555   -1.8768    0.0006 C   0  0  0  0  0  0  0  0  0  0  0  0
    1.1333   -0.5825    0.0537 N   0  0  0  0  0  0  0  0  0  0  0  0
    2.7773   -2.3763    0.0084 C   0  0  0  0  0  0  0  0  0  0  0  0
   -1.7802   -2.7213   -1.3345 C   0  0  0  0  0  0  0  0  0  0  0  0
   -1.3340   -2.2774   -2.5656 C   0  0  0  0  0  0  0  0  0  0  0  0
   -1.9557   -2.7076   -3.7227 C   0  0  0  0  0  0  0  0  0  0  0  0
   -3.0239   -3.5820   -3.6496 C   0  0  0  0  0  0  0  0  0  0  0  0
   -3.4702   -4.0267   -2.4184 C   0  0  0  0  0  0  0  0  0  0  0  0
   -2.8443   -3.5999   -1.2608 C   0  0  0  0  0  0  0  0  0  0  0  0
   -4.9318   -5.2223   -2.3177 Br  0  0  0  0  0  0  0  0  0  0  0  0
   -2.4781   -0.1130    0.0003 C   0  0  0  0  0  0  0  0  0  0  0  0
   -2.5574    1.2175    0.0638 O   0  0  0  0  0  0  0  0  0  0  0  0
   -3.5918   -0.8457   -0.0606 O   0  0  0  0  0  1  0  0  0  0  0  0
    0.8612    1.9128    0.1689 H   0  0  0  0  0  0  0  0  0  0  0  0
   -0.6614    1.8699   -0.7519 H   0  0  0  0  0  0  0  0  0  0  0  0
   -0.6937    1.7843    1.0257 H   0  0  0  0  0  0  0  0  0  0  0  0
    1.6113   -6.4778    0.6092 H   0  0  0  0  0  0  0  0  0  0  0  0
    1.4699   -6.4235   -1.1643 H   0  0  0  0  0  0  0  0  0  0  0  0
    4.0841   -5.7854   -1.1239 H   0  0  0  0  0  0  0  0  0  0  0  0
    3.3975   -7.8497    1.0101 H   0  0  0  0  0  0  0  0  0  0  0  0
    5.8115   -6.1044   -1.3074 H   0  0  0  0  0  0  0  0  0  0  0  0
    8.2070   -6.6260   -1.5066 H   0  0  0  0  0  0  0  0  0  0  0  0
    9.2005   -8.4097   -0.1344 H   0  0  0  0  0  0  0  0  0  0  0  0
    7.8064   -9.6816    1.4436 H   0  0  0  0  0  0  0  0  0  0  0  0
    5.4115   -9.1669    1.6672 H   0  0  0  0  0  0  0  0  0  0  0  0
    2.9858   -2.8938   -0.9280 H   0  0  0  0  0  0  0  0  0  0  0  0
    3.4584   -1.5322    0.1165 H   0  0  0  0  0  0  0  0  0  0  0  0
    2.9162   -3.0643    0.8424 H   0  0  0  0  0  0  0  0  0  0  0  0
   -0.4997   -1.5939   -2.6231 H   0  0  0  0  0  0  0  0  0  0  0  0
   -1.6070   -2.3603   -4.6841 H   0  0  0  0  0  0  0  0  0  0  0  0
   -3.5100   -3.9176   -4.5537 H   0  0  0  0  0  0  0  0  0  0  0  0
   -3.1902   -3.9498   -0.2993 H   0  0  0  0  0  0  0  0  0  0  0  0
  1  2  1  0  0  0  0
  1 32  1  0  0  0  0
  1 33  1  0  0  0  0
  1 34  1  0  0  0  0
  2 20  1  0  0  0  0
  2  3  2  0  0  0  0
  3  4  1  0  0  0  0
  3 29  1  0  0  0  0
  4  5  1  1  0  0  0
  4  6  1  0  0  0  0
  4 22  1  0  0  0  0
  6  7  2  0  0  0  0
  6 19  1  0  0  0  0
  7  8  1  0  0  0  0
  7  9  1  0  0  0  0
  9 10  1  0  0  0  0
 10 11  1  0  0  0  0
 10 35  1  0  0  0  0
 10 36  1  0  0  0  0
 11 12  2  0  0  0  0
 11 37  1  0  0  0  0
 12 13  1  0  0  0  0
 12 38  1  0  0  0  0
 13 18  2  0  0  0  0
 13 14  1  0  0  0  0
 14 15  2  0  0  0  0
 14 39  1  0  0  0  0
 15 16  1  0  0  0  0
 15 40  1  0  0  0  0
 16 17  2  0  0  0  0
 16 41  1  0  0  0  0
 17 18  1  0  0  0  0
 17 42  1  0  0  0  0
 18 43  1  0  0  0  0
 19 20  2  0  0  0  0
 19 21  1  0  0  0  0
 21 44  1  0  0  0  0
 21 45  1  0  0  0  0
 21 46  1  0  0  0  0
 22 27  2  0  0  0  0
 22 23  1  0  0  0  0
 23 24  2  0  0  0  0
 23 47  1  0  0  0  0
 24 25  1  0  0  0  0
 24 48  1  0  0  0  0
 25 26  2  0  0  0  0
 25 49  1  0  0  0  0
 26 27  1  0  0  0  0
 26 28  1  0  0  0  0
 27 50  1  0  0  0  0
 29 30  2  0  0  0  0
 29 31  1  0  0  0  0
M  CHG  1   8  -1
M  END
$$$$
ZINC40062883
 OpenBabel01252620473D

 45 47  0  0  1  0  0  0  0  0999 V2000
   -0.0167    1.3775    0.0096 C   0  0  0  0  0  0  0  0  0  0  0  0
    1.1687    2.0872    0.0021 C   0  0  0  0  0  0  0  0  0  0  0  0
    2.3831    1.4125   -0.0135 C   0  0  0  0  0  0  0  0  0  0  0  0
    2.4036    0.0243   -0.0211 C   0  0  0  0  0  0  0  0  0  0  0  0
    1.2124   -0.6837   -0.0131 C   0  0  0  0  0  0  0  0  0  0  0  0
    0.0021   -0.0041    0.0020 C   0  0  0  0  0  0  0  0  0  0  0  0
    1.2291   -2.0425   -0.0210 O   0  0  0  0  0  0  0  0  0  0  0  0
   -0.0361   -2.7069   -0.0119 C   0  0  0  0  0  0  0  0  0  0  0  0
    0.1829   -4.2211   -0.0227 C   0  0  1  0  0  0  0  0  0  0  0  0
    0.8359   -4.5141    0.7994 H   0  0  0  0  0  0  0  0  0  0  0  0
   -1.1744   -4.9616    0.0783 C   0  0  0  0  0  0  0  0  0  0  0  0
   -0.8177   -6.3220   -0.5804 C   0  0  0  0  0  0  0  0  0  0  0  0
    0.2031   -5.9053   -1.6609 C   0  0  0  0  0  0  0  0  0  0  0  0
    0.7456   -4.6345   -1.2780 O   0  0  0  0  0  0  0  0  0  0  0  0
    3.5815    2.1297   -0.0220 N   0  0  0  0  0  2  0  0  0  0  0  0
    3.5556    3.7854   -0.0135 S   0  0  0  0  0  0  0  0  0  0  0  0
    2.9860    4.1891   -1.2512 O   0  0  0  0  0  0  0  0  0  0  0  0
    3.0111    4.1766    1.2394 O   0  0  0  0  0  0  0  0  0  0  0  0
    5.2304    4.3327   -0.0277 C   0  0  0  0  0  0  0  0  0  0  0  0
    5.9010    4.5359    1.1646 C   0  0  0  0  0  0  0  0  0  0  0  0
    7.2150    4.9652    1.1568 C   0  0  0  0  0  0  0  0  0  0  0  0
    7.8616    5.1928   -0.0428 C   0  0  0  0  0  0  0  0  0  0  0  0
    7.1912    4.9898   -1.2401 C   0  0  0  0  0  0  0  0  0  0  0  0
    5.8742    4.5530   -1.2297 C   0  0  0  0  0  0  0  0  0  0  0  0
    7.8250    5.2130   -2.4213 O   0  0  0  0  0  0  0  0  0  0  0  0
    9.1820    5.6558   -2.3559 C   0  0  0  0  0  0  0  0  0  0  0  0
    9.9538    4.6973   -1.6905 F   0  0  0  0  0  0  0  0  0  0  0  0
    9.6770    5.8351   -3.6521 F   0  0  0  0  0  0  0  0  0  0  0  0
    9.2439    6.8685   -1.6612 F   0  0  0  0  0  0  0  0  0  0  0  0
   -0.9597    1.9036    0.0259 H   0  0  0  0  0  0  0  0  0  0  0  0
    1.1513    3.1670    0.0080 H   0  0  0  0  0  0  0  0  0  0  0  0
    3.3462   -0.5028   -0.0336 H   0  0  0  0  0  0  0  0  0  0  0  0
   -0.9262   -0.5560    0.0082 H   0  0  0  0  0  0  0  0  0  0  0  0
   -0.5876   -2.4259    0.8853 H   0  0  0  0  0  0  0  0  0  0  0  0
   -0.6056   -2.4159   -0.8946 H   0  0  0  0  0  0  0  0  0  0  0  0
   -1.4727   -5.0948    1.1182 H   0  0  0  0  0  0  0  0  0  0  0  0
   -1.9482   -4.4423   -0.4870 H   0  0  0  0  0  0  0  0  0  0  0  0
   -0.3618   -6.9963    0.1446 H   0  0  0  0  0  0  0  0  0  0  0  0
   -1.6987   -6.7763   -1.0337 H   0  0  0  0  0  0  0  0  0  0  0  0
    1.0021   -6.6444   -1.7194 H   0  0  0  0  0  0  0  0  0  0  0  0
   -0.2948   -5.8200   -2.6268 H   0  0  0  0  0  0  0  0  0  0  0  0
    5.3971    4.3591    2.1033 H   0  0  0  0  0  0  0  0  0  0  0  0
    7.7365    5.1231    2.0893 H   0  0  0  0  0  0  0  0  0  0  0  0
    8.8879    5.5289   -0.0483 H   0  0  0  0  0  0  0  0  0  0  0  0
    5.3516    4.3896   -2.1606 H   0  0  0  0  0  0  0  0  0  0  0  0
  1  6  2  0  0  0  0
  1  2  1  0  0  0  0
  1 30  1  0  0  0  0
  2  3  2  0  0  0  0
  2 31  1  0  0  0  0
  3  4  1  0  0  0  0
  3 15  1  0  0  0  0
  4  5  2  0  0  0  0
  4 32  1  0  0  0  0
  5  6  1  0  0  0  0
  5  7  1  0  0  0  0
  6 33  1  0  0  0  0
  7  8  1  0  0  0  0
  8  9  1  0  0  0  0
  8 34  1  0  0  0  0
  8 35  1  0  0  0  0
  9 10  1  1  0  0  0
  9 14  1  0  0  0  0
  9 11  1  0  0  0  0
 11 12  1  0  0  0  0
 11 36  1  0  0  0  0
 11 37  1  0  0  0  0
 12 13  1  0  0  0  0
 12 38  1  0  0  0  0
 12 39  1  0  0  0  0
 13 14  1  0  0  0  0
 13 40  1  0  0  0  0
 13 41  1  0  0  0  0
 15 16  1  0  0  0  0
 16 17  2  0  0  0  0
 16 18  2  0  0  0  0
 16 19  1  0  0  0  0
 19 24  2  0  0  0  0
 19 20  1  0  0  0  0
 20 21  2  0  0  0  0
 20 42  1  0  0  0  0
 21 22  1  0  0  0  0
 21 43  1  0  0  0  0
 22 23  2  0  0  0  0
 22 44  1  0  0  0  0
 23 24  1  0  0  0  0
 23 25  1  0  0  0  0
 24 45  1  0  0  0  0
 25 26  1  0  0  0  0
 26 27  1  0  0  0  0
 26 28  1  0  0  0  0
 26 29  1  0  0  0  0
M  END
$$$$
ZINC44260843
 OpenBabel01252620473D

 37 38  0  0  1  0  0  0  0  0999 V2000
    0.3719    1.8476    0.6613 C   0  0  0  0  0  0  0  0  0  0  0  0
    0.3617    0.3510    0.3434 C   0  0  2  0  0  0  0  0  0  0  0  0
    1.0231    0.1543   -0.5003 H   0  0  0  0  0  0  0  0  0  0  0  0
   -1.0612   -0.0853   -0.0115 C   0  0  0  0  0  0  0  0  0  0  0  0
   -1.0714   -1.5818   -0.3294 C   0  0  0  0  0  0  0  0  0  0  0  0
   -0.5872   -2.3660    0.8919 C   0  0  0  0  0  0  0  0  0  0  0  0
    0.8357   -1.9297    1.2468 C   0  0  0  0  0  0  0  0  0  0  0  0
    0.8459   -0.4331    1.5647 C   0  0  1  0  0  0  0  0  0  0  0  0
    2.2474   -0.0034    1.9143 C   0  0  0  0  0  0  0  0  0  0  0  0
    2.4540    0.6294    2.9357 O   0  0  0  0  0  0  0  0  0  0  0  0
    3.1745   -0.2885    1.1757 O   0  0  0  0  0  1  0  0  0  0  0  0
   -0.0432   -0.1687    2.6987 N   0  0  0  0  0  0  0  0  0  0  0  0
    0.0211   -1.1327    4.0436 S   0  0  0  0  0  0  0  0  0  0  0  0
   -0.8593   -0.5567    4.9987 O   0  0  0  0  0  0  0  0  0  0  0  0
   -0.1177   -2.4722    3.5901 O   0  0  0  0  0  0  0  0  0  0  0  0
    1.6469   -0.9920    4.7082 C   0  0  0  0  0  0  0  0  0  0  0  0
    2.6228   -1.9195    4.3775 C   0  0  0  0  0  0  0  0  0  0  0  0
    3.8897   -1.7688    4.9250 C   0  0  0  0  0  0  0  0  0  0  0  0
    4.1332   -0.7046    5.7768 C   0  0  0  0  0  0  0  0  0  0  0  0
    3.1789    0.1573    6.0677 N   0  0  0  0  0  0  0  0  0  0  0  0
    1.9664    0.0474    5.5610 C   0  0  0  0  0  0  0  0  0  0  0  0
    4.8716   -2.6490    4.6311 F   0  0  0  0  0  0  0  0  0  0  0  0
    1.3856    2.1584    0.9141 H   0  0  0  0  0  0  0  0  0  0  0  0
    0.0269    2.4062   -0.2088 H   0  0  0  0  0  0  0  0  0  0  0  0
   -0.2896    2.0443    1.5050 H   0  0  0  0  0  0  0  0  0  0  0  0
   -1.7227    0.1115    0.8322 H   0  0  0  0  0  0  0  0  0  0  0  0
   -1.4061    0.4734   -0.8816 H   0  0  0  0  0  0  0  0  0  0  0  0
   -2.0851   -1.8927   -0.5823 H   0  0  0  0  0  0  0  0  0  0  0  0
   -0.4099   -1.7786   -1.1731 H   0  0  0  0  0  0  0  0  0  0  0  0
   -1.2487   -2.1692    1.7356 H   0  0  0  0  0  0  0  0  0  0  0  0
   -0.5945   -3.4321    0.6654 H   0  0  0  0  0  0  0  0  0  0  0  0
    1.1806   -2.4883    2.1169 H   0  0  0  0  0  0  0  0  0  0  0  0
    1.4971   -2.1264    0.4031 H   0  0  0  0  0  0  0  0  0  0  0  0
   -0.6695    0.5711    2.6618 H   0  0  0  0  0  0  0  0  0  0  0  0
    2.4027   -2.7398    3.7103 H   0  0  0  0  0  0  0  0  0  0  0  0
    5.1155   -0.5795    6.2078 H   0  0  0  0  0  0  0  0  0  0  0  0
    1.2123    0.7761    5.8194 H   0  0  0  0  0  0  0  0  0  0  0  0
  1  2  1  0  0  0  0
  1 23  1  0  0  0  0
  1 24  1  0  0  0  0
  1 25  1  0  0  0  0
  2  3  1  6  0  0  0
  2  8  1  0  0  0  0
  2  4  1  0  0  0  0
  4  5  1  0  0  0  0
  4 26  1  0  0  0  0
  4 27  1  0  0  0  0
  5  6  1  0  0  0  0
  5 28  1  0  0  0  0
  5 29  1  0  0  0  0
  6  7  1  0  0  0  0
  6 30  1  0  0  0  0
  6 31  1  0  0  0  0
  7  8  1  0  0  0  0
  7 32  1  0  0  0  0
  7 33  1  0  0  0  0
  8  9  1  1  0  0  0
  8 12  1  0  0  0  0
  9 10  2  0  0  0  0
  9 11  1  0  0  0  0
 12 13  1  0  0  0  0
 12 34  1  0  0  0  0
 13 14  2  0  0  0  0
 13 15  2  0  0  0  0
 13 16  1  0  0  0  0
 16 21  2  0  0  0  0
 16 17  1  0  0  0  0
 17 18  2  0  0  0  0
 17 35  1  0  0  0  0
 18 19  1  0  0  0  0
 18 22  1  0  0  0  0
 19 20  2  0  0  0  0
 19 36  1  0  0  0  0
 20 21  1  0  0  0  0
 21 37  1  0  0  0  0
M  END
$$$$
ZINC50679220
 OpenBabel01252620473D

 47 48  0  0  0  0  0  0  0  0999 V2000
   -0.0184    1.5028    0.0103 C   0  0  0  0  0  0  0  0  0  0  0  0
    0.0021   -0.0041    0.0020 C   0  0  0  0  0  0  0  0  0  0  0  0
   -1.0762   -0.8076    0.0026 C   0  0  0  0  0  0  0  0  0  0  0  0
   -0.6254   -2.1466   -0.0073 C   0  0  0  0  0  0  0  0  0  0  0  0
    0.6829   -2.1299   -0.0135 N   0  0  0  0  0  0  0  0  0  0  0  0
    1.0997   -0.7765   -0.0131 O   0  0  0  0  0  0  0  0  0  0  0  0
   -1.4321   -3.2847   -0.0099 N   0  0  0  0  0  0  0  0  0  0  0  0
   -2.7740   -3.1595   -0.0028 C   0  0  0  0  0  0  0  0  0  0  0  0
   -3.2802   -2.0574    0.0060 O   0  0  0  0  0  0  0  0  0  0  0  0
   -3.6455   -4.3889   -0.0057 C   0  0  0  0  0  0  0  0  0  0  0  0
   -5.3904   -3.8932    0.0056 S   0  0  0  0  0  0  0  0  0  0  0  0
   -6.2936   -5.4664    0.0009 C   0  0  0  0  0  0  0  0  0  0  0  0
   -7.7759   -5.1947    0.0096 C   0  0  0  0  0  0  0  0  0  0  0  0
   -8.3771   -4.7837    1.1390 O   0  5  0  0  0  0  0  0  0  0  0  0
   -8.5069   -5.3658   -1.1283 C   0  0  0  0  0  0  0  0  0  0  0  0
   -7.8663   -5.8037   -2.3318 C   0  0  0  0  0  0  0  0  0  0  0  0
   -7.3581   -6.1511   -3.2866 N   0  0  0  0  0  0  0  0  0  0  0  0
   -9.9529   -5.1007   -1.1198 C   0  0  0  0  0  0  0  0  0  0  0  0
  -10.4972   -4.7287   -0.0973 O   0  0  0  0  0  0  0  0  0  0  0  0
  -10.6756   -5.2699   -2.2448 N   0  0  0  0  0  0  0  0  0  0  0  0
  -12.1166   -5.0057   -2.2363 C   0  0  0  0  0  0  0  0  0  0  0  0
  -12.8603   -6.2499   -1.7465 C   0  0  0  0  0  0  0  0  0  0  0  0
  -14.3652   -5.9740   -1.7377 C   0  0  0  0  0  0  0  0  0  0  0  0
  -14.8285   -5.6275   -3.1541 C   0  0  0  0  0  0  0  0  0  0  0  0
  -14.0848   -4.3834   -3.6439 C   0  0  0  0  0  0  0  0  0  0  0  0
  -12.5799   -4.6592   -3.6527 C   0  0  0  0  0  0  0  0  0  0  0  0
    1.0042    1.8801    0.0026 H   0  0  0  0  0  0  0  0  0  0  0  0
   -0.5455    1.8639   -0.8728 H   0  0  0  0  0  0  0  0  0  0  0  0
   -0.5286    1.8543    0.9071 H   0  0  0  0  0  0  0  0  0  0  0  0
   -2.1071   -0.4855    0.0097 H   0  0  0  0  0  0  0  0  0  0  0  0
   -1.0273   -4.1661   -0.0170 H   0  0  0  0  0  0  0  0  0  0  0  0
   -3.4407   -4.9774   -0.9000 H   0  0  0  0  0  0  0  0  0  0  0  0
   -3.4322   -4.9876    0.8799 H   0  0  0  0  0  0  0  0  0  0  0  0
   -6.0332   -6.0322   -0.8936 H   0  0  0  0  0  0  0  0  0  0  0  0
   -6.0246   -6.0424    0.8863 H   0  0  0  0  0  0  0  0  0  0  0  0
  -10.2417   -5.5665   -3.0600 H   0  0  0  0  0  0  0  0  0  0  0  0
  -12.3288   -4.1697   -1.5699 H   0  0  0  0  0  0  0  0  0  0  0  0
  -12.6481   -7.0859   -2.4129 H   0  0  0  0  0  0  0  0  0  0  0  0
  -12.5302   -6.4967   -0.7375 H   0  0  0  0  0  0  0  0  0  0  0  0
  -14.8950   -6.8603   -1.3888 H   0  0  0  0  0  0  0  0  0  0  0  0
  -14.5774   -5.1380   -1.0713 H   0  0  0  0  0  0  0  0  0  0  0  0
  -14.6163   -6.4635   -3.8205 H   0  0  0  0  0  0  0  0  0  0  0  0
  -15.9006   -5.4310   -3.1478 H   0  0  0  0  0  0  0  0  0  0  0  0
  -14.4148   -4.1365   -4.6530 H   0  0  0  0  0  0  0  0  0  0  0  0
  -14.2970   -3.5473   -2.9775 H   0  0  0  0  0  0  0  0  0  0  0  0
  -12.0501   -3.7729   -4.0017 H   0  0  0  0  0  0  0  0  0  0  0  0
  -12.3676   -5.4953   -4.3191 H   0  0  0  0  0  0  0  0  0  0  0  0
  1  2  1  0  0  0  0
  1 27  1  0  0  0  0
  1 28  1  0  0  0  0
  1 29  1  0  0  0  0
  2  6  1  0  0  0  0
  2  3  2  0  0  0  0
  3  4  1  0  0  0  0
  3 30  1  0  0  0  0
  4  5  2  0  0  0  0
  4  7  1  0  0  0  0
  5  6  1  0  0  0  0
  7  8  1  0  0  0  0
  7 31  1  0  0  0  0
  8  9  2  0  0  0  0
  8 10  1  0  0  0  0
 10 11  1  0  0  0  0
 10 32  1  0  0  0  0
 10 33  1  0  0  0  0
 11 12  1  0  0  0  0
 12 13  1  0  0  0  0
 12 34  1  0  0  0  0
 12 35  1  0  0  0  0
 13 14  1  0  0  0  0
 13 15  2  0  0  0  0
 15 16  1  0  0  0  0
 15 18  1  0  0  0  0
 16 17  3  0  0  0  0
 18 19  2  0  0  0  0
 18 20  1  0  0  0  0
 20 21  1  0  0  0  0
 20 36  1  0  0  0  0
 21 26  1  0  0  0  0
 21 22  1  0  0  0  0
 21 37  1  0  0  0  0
 22 23  1  0  0  0  0
 22 38  1  0  0  0  0
 22 39  1  0  0  0  0
 23 24  1  0  0  0  0
 23 40  1  0  0  0  0
 23 41  1  0  0  0  0
 24 25  1  0  0  0  0
 24 42  1  0  0  0  0
 24 43  1  0  0  0  0
 25 26  1  0  0  0  0
 25 44  1  0  0  0  0
 25 45  1  0  0  0  0
 26 46  1  0  0  0  0
 26 47  1  0  0  0  0
M  CHG  1  14  -1
M  END
$$$$
ZINC03839540
 OpenBabel01252620473D

 48 51  0  0  1  0  0  0  0  0999 V2000
   12.3319    2.9198    2.7609 C   0  0  0  0  0  0  0  0  0  0  0  0
   11.2764    2.1027    3.0877 C   0  0  0  0  0  0  0  0  0  0  0  0
   10.7503    1.1995    2.1574 C   0  0  0  0  0  0  0  0  0  0  0  0
   11.3017    1.1421    0.8772 C   0  0  0  0  0  0  0  0  0  0  0  0
   12.3821    1.9739    0.5495 C   0  0  0  0  0  0  0  0  0  0  0  0
   12.8958    2.8585    1.4855 C   0  0  0  0  0  0  0  0  0  0  0  0
   14.0402    3.7352    1.1332 C   0  0  0  0  0  0  0  0  0  0  0  0
   14.5660    4.6268    2.0632 C   0  0  0  0  0  0  0  0  0  0  0  0
   15.6091    5.4093    1.7050 C   0  0  0  0  0  0  0  0  0  0  0  0
   15.8935    4.9100    0.0153 S   0  0  0  0  0  0  0  0  0  0  0  0
   14.6050    3.6811   -0.1100 C   0  0  0  0  0  0  0  0  0  0  0  0
   10.8010    0.2391   -0.1708 C   0  0  0  0  0  0  0  0  0  0  0  0
   11.6021   -0.2979   -0.9112 O   0  0  0  0  0  0  0  0  0  0  0  0
    9.4970   -0.0141   -0.3412 N   0  0  0  0  0  0  0  0  0  0  0  0
    8.9074   -0.9021   -1.3579 C   0  0  0  0  0  0  0  0  0  0  0  0
    7.4449   -0.4123   -1.5224 C   0  0  0  0  0  0  0  0  0  0  0  0
    7.0855   -0.0161   -0.0657 C   0  0  1  0  0  0  0  0  0  0  0  0
    6.7779   -0.8908    0.5074 H   0  0  0  0  0  0  0  0  0  0  0  0
    8.4118    0.5538    0.4776 C   0  0  1  0  0  0  0  0  0  0  0  0
    8.4144    1.6419    0.4141 H   0  0  0  0  0  0  0  0  0  0  0  0
    8.6107    0.0891    1.8969 C   0  0  0  0  0  0  0  0  0  0  0  0
    7.7526   -0.5859    2.4249 O   0  0  0  0  0  0  0  0  0  0  0  0
    9.7051    0.4014    2.5839 N   0  0  0  0  0  0  0  0  0  0  0  0
    6.0367    1.0067   -0.0502 N   0  0  0  0  0  0  0  0  0  0  0  0
    4.7394    0.6415   -0.0397 C   0  0  0  0  0  0  0  0  0  0  0  0
    4.4403   -0.5338   -0.0432 O   0  0  0  0  0  0  0  0  0  0  0  0
    3.6606    1.6936   -0.0238 C   0  0  0  0  0  0  0  0  0  0  0  0
    2.3790    1.0615   -0.0150 O   0  0  0  0  0  0  0  0  0  0  0  0
    1.2804    1.9752    0.0004 C   0  0  0  0  0  0  0  0  0  0  0  0
   -0.0143    1.2041    0.0087 C   0  0  0  0  0  0  0  0  0  0  0  0
    0.0021   -0.0041    0.0020 O   0  0  0  0  0  0  0  0  0  0  0  0
   12.7254    3.6107    3.4919 H   0  0  0  0  0  0  0  0  0  0  0  0
   10.8465    2.1586    4.0769 H   0  0  0  0  0  0  0  0  0  0  0  0
   12.8165    1.9253   -0.4380 H   0  0  0  0  0  0  0  0  0  0  0  0
   14.1470    4.6931    3.0563 H   0  0  0  0  0  0  0  0  0  0  0  0
   16.1352    6.1480    2.2914 H   0  0  0  0  0  0  0  0  0  0  0  0
   14.3395    3.0576   -0.9509 H   0  0  0  0  0  0  0  0  0  0  0  0
    9.4471   -0.8099   -2.3004 H   0  0  0  0  0  0  0  0  0  0  0  0
    8.9211   -1.9357   -1.0121 H   0  0  0  0  0  0  0  0  0  0  0  0
    6.7991   -1.2144   -1.8796 H   0  0  0  0  0  0  0  0  0  0  0  0
    7.3957    0.4514   -2.1855 H   0  0  0  0  0  0  0  0  0  0  0  0
    9.7778    0.0309    3.4774 H   0  0  0  0  0  0  0  0  0  0  0  0
    6.2760    1.9467   -0.0474 H   0  0  0  0  0  0  0  0  0  0  0  0
    3.7507    2.3199   -0.9113 H   0  0  0  0  0  0  0  0  0  0  0  0
    3.7677    2.3103    0.8685 H   0  0  0  0  0  0  0  0  0  0  0  0
    1.3211    2.6074   -0.8866 H   0  0  0  0  0  0  0  0  0  0  0  0
    1.3381    2.5978    0.8933 H   0  0  0  0  0  0  0  0  0  0  0  0
   -1.1857    1.8593    0.0178 O   0  0  0  0  0  1  0  0  0  0  0  0
  1  6  2  0  0  0  0
  1  2  1  0  0  0  0
  1 32  1  0  0  0  0
  2  3  2  0  0  0  0
  2 33  1  0  0  0  0
  3 23  1  0  0  0  0
  3  4  1  0  0  0  0
  4  5  2  0  0  0  0
  4 12  1  0  0  0  0
  5  6  1  0  0  0  0
  5 34  1  0  0  0  0
  6  7  1  0  0  0  0
  7 11  2  0  0  0  0
  7  8  1  0  0  0  0
  8  9  2  0  0  0  0
  8 35  1  0  0  0  0
  9 10  1  0  0  0  0
  9 36  1  0  0  0  0
 10 11  1  0  0  0  0
 11 37  1  0  0  0  0
 12 13  2  0  0  0  0
 12 14  1  0  0  0  0
 14 19  1  0  0  0  0
 14 15  1  0  0  0  0
 15 16  1  0  0  0  0
 15 38  1  0  0  0  0
 15 39  1  0  0  0  0
 16 17  1  0  0  0  0
 16 40  1  0  0  0  0
 16 41  1  0  0  0  0
 17 18  1  1  0  0  0
 17 19  1  0  0  0  0
 17 24  1  0  0  0  0
 19 20  1  6  0  0  0
 19 21  1  0  0  0  0
 21 22  2  0  0  0  0
 21 23  1  0  0  0  0
 23 42  1  0  0  0  0
 24 25  1  0  0  0  0
 24 43  1  0  0  0  0
 25 26  2  0  0  0  0
 25 27  1  0  0  0  0
 27 28  1  0  0  0  0
 27 44  1  0  0  0  0
 27 45  1  0  0  0  0
 28 29  1  0  0  0  0
 29 30  1  0  0  0  0
 29 46  1  0  0  0  0
 29 47  1  0  0  0  0
 30 31  2  0  0  0  0
 30 48  1  0  0  0  0
M  END
$$$$
ZINC13058760
 OpenBabel01252620473D

 57 59  0  0  0  0  0  0  0  0999 V2000
   -2.2372   -4.3425    0.3508 C   0  0  0  0  0  0  0  0  0  0  0  0
   -2.0395   -2.8918    0.7081 C   0  0  0  0  0  0  0  0  0  0  0  0
   -3.0464   -2.1955    1.3516 C   0  0  0  0  0  0  0  0  0  0  0  0
   -2.8691   -0.8644    1.6811 C   0  0  0  0  0  0  0  0  0  0  0  0
   -1.6847   -0.2260    1.3687 C   0  0  0  0  0  0  0  0  0  0  0  0
   -0.6717   -0.9223    0.7226 C   0  0  0  0  0  0  0  0  0  0  0  0
   -0.8553   -2.2579    0.3879 C   0  0  0  0  0  0  0  0  0  0  0  0
    0.2391   -3.0158   -0.3185 C   0  0  0  0  0  0  0  0  0  0  0  0
    0.5286   -0.2786    0.4045 N   0  0  0  0  0  0  0  0  0  0  0  0
    0.5181    1.0097    0.0086 C   0  0  0  0  0  0  0  0  0  0  0  0
   -0.9710    1.8235   -0.2175 S   0  0  0  0  0  0  0  0  0  0  0  0
    1.6797    1.6556   -0.2145 N   0  0  0  0  0  0  0  0  0  0  0  0
    2.8982    0.9878   -0.0350 N   0  0  0  0  0  0  0  0  0  0  0  0
    4.0167    1.6097   -0.2499 C   0  0  0  0  0  0  0  0  0  0  0  0
    4.0049    3.0502   -0.6925 C   0  0  0  0  0  0  0  0  0  0  0  0
    5.2994    0.9068   -0.0609 C   0  0  0  0  0  0  0  0  0  0  0  0
    6.5052    1.5714   -0.2969 C   0  0  0  0  0  0  0  0  0  0  0  0
    7.7012    0.9094   -0.1126 C   0  0  0  0  0  0  0  0  0  0  0  0
    7.7081   -0.4134    0.2934 C   0  0  0  0  0  0  0  0  0  0  0  0
    6.5174   -1.0797    0.5235 C   0  0  0  0  0  0  0  0  0  0  0  0
    5.3141   -0.4284    0.3492 C   0  0  0  0  0  0  0  0  0  0  0  0
    9.2406   -1.2532    0.5191 S   0  0  0  0  0  0  0  0  0  0  0  0
   10.1891   -0.2696    0.9090 O   0  0  0  0  0  0  0  0  0  0  0  0
    8.9626   -2.3996    1.3113 O   0  0  0  0  0  0  0  0  0  0  0  0
    9.7179   -1.8086   -0.9661 N   0  0  0  0  0  0  0  0  0  0  0  0
    8.9425   -2.7450   -1.6401 C   0  0  0  0  0  0  0  0  0  0  0  0
    8.4371   -3.8486   -0.9580 C   0  0  0  0  0  0  0  0  0  0  0  0
    7.6679   -4.7716   -1.6186 C   0  0  0  0  0  0  0  0  0  0  0  0
    7.4002   -4.6092   -2.9817 C   0  0  0  0  0  0  0  0  0  0  0  0
    7.9138   -3.5023   -3.6650 C   0  0  0  0  0  0  0  0  0  0  0  0
    8.6779   -2.5803   -2.9971 C   0  0  0  0  0  0  0  0  0  0  0  0
    6.5781   -5.6020   -3.6962 C   0  0  0  0  0  0  0  0  0  0  0  0
    6.3459   -5.4594   -4.8805 O   0  0  0  0  0  0  0  0  0  0  0  0
   -2.6746   -4.4151   -0.6449 H   0  0  0  0  0  0  0  0  0  0  0  0
   -1.2748   -4.8541    0.3632 H   0  0  0  0  0  0  0  0  0  0  0  0
   -2.9052   -4.8074    1.0759 H   0  0  0  0  0  0  0  0  0  0  0  0
   -3.9734   -2.6924    1.5969 H   0  0  0  0  0  0  0  0  0  0  0  0
   -3.6573   -0.3235    2.1835 H   0  0  0  0  0  0  0  0  0  0  0  0
   -1.5465    0.8136    1.6270 H   0  0  0  0  0  0  0  0  0  0  0  0
    0.8940   -3.4798    0.4190 H   0  0  0  0  0  0  0  0  0  0  0  0
   -0.2022   -3.7876   -0.9492 H   0  0  0  0  0  0  0  0  0  0  0  0
    0.8170   -2.3283   -0.9361 H   0  0  0  0  0  0  0  0  0  0  0  0
    1.3686   -0.7594    0.4687 H   0  0  0  0  0  0  0  0  0  0  0  0
    1.6722    2.5828   -0.4994 H   0  0  0  0  0  0  0  0  0  0  0  0
    4.0229    3.6994    0.1829 H   0  0  0  0  0  0  0  0  0  0  0  0
    4.8815    3.2479   -1.3095 H   0  0  0  0  0  0  0  0  0  0  0  0
    3.1019    3.2452   -1.2710 H   0  0  0  0  0  0  0  0  0  0  0  0
    6.5011    2.6024   -0.6185 H   0  0  0  0  0  0  0  0  0  0  0  0
    8.6343    1.4235   -0.2897 H   0  0  0  0  0  0  0  0  0  0  0  0
    6.5303   -2.1120    0.8406 H   0  0  0  0  0  0  0  0  0  0  0  0
    4.3855   -0.9495    0.5298 H   0  0  0  0  0  0  0  0  0  0  0  0
   10.5386   -1.4805   -1.3658 H   0  0  0  0  0  0  0  0  0  0  0  0
    8.6477   -3.9756    0.0937 H   0  0  0  0  0  0  0  0  0  0  0  0
    7.2724   -5.6250   -1.0879 H   0  0  0  0  0  0  0  0  0  0  0  0
    7.7086   -3.3738   -4.7175 H   0  0  0  0  0  0  0  0  0  0  0  0
    9.0746   -1.7251   -3.5242 H   0  0  0  0  0  0  0  0  0  0  0  0
    6.0839   -6.6680   -3.0363 O   0  0  0  0  0  1  0  0  0  0  0  0
  1  2  1  0  0  0  0
  1 34  1  0  0  0  0
  1 35  1  0  0  0  0
  1 36  1  0  0  0  0
  2  7  2  0  0  0  0
  2  3  1  0  0  0  0
  3  4  2  0  0  0  0
  3 37  1  0  0  0  0
  4  5  1  0  0  0  0
  4 38  1  0  0  0  0
  5  6  2  0  0  0  0
  5 39  1  0  0  0  0
  6  7  1  0  0  0  0
  6  9  1  0  0  0  0
  7  8  1  0  0  0  0
  8 40  1  0  0  0  0
  8 41  1  0  0  0  0
  8 42  1  0  0  0  0
  9 10  1  0  0  0  0
  9 43  1  0  0  0  0
 10 11  2  0  0  0  0
 10 12  1  0  0  0  0
 12 13  1  0  0  0  0
 12 44  1  0  0  0  0
 13 14  2  0  0  0  0
 14 15  1  0  0  0  0
 14 16  1  0  0  0  0
 15 45  1  0  0  0  0
 15 46  1  0  0  0  0
 15 47  1  0  0  0  0
 16 21  2  0  0  0  0
 16 17  1  0  0  0  0
 17 18  2  0  0  0  0
 17 48  1  0  0  0  0
 18 19  1  0  0  0  0
 18 49  1  0  0  0  0
 19 20  2  0  0  0  0
 19 22  1  0  0  0  0
 20 21  1  0  0  0  0
 20 50  1  0  0  0  0
 21 51  1  0  0  0  0
 22 23  2  0  0  0  0
 22 24  2  0  0  0  0
 22 25  1  0  0  0  0
 25 26  1  0  0  0  0
 25 52  1  0  0  0  0
 26 31  2  0  0  0  0
 26 27  1  0  0  0  0
 27 28  2  0  0  0  0
 27 53  1  0  0  0  0
 28 29  1  0  0  0  0
 28 54  1  0  0  0  0
 29 30  2  0  0  0  0
 29 32  1  0  0  0  0
 30 31  1  0  0  0  0
 30 55  1  0  0  0  0
 31 56  1  0  0  0  0
 32 33  2  0  0  0  0
 32 57  1  0  0  0  0
M  END
$$$$
ZINC39148871
 OpenBabel01252620473D

 54 57  0  0  1  0  0  0  0  0999 V2000
   -2.1140   -2.3747   -1.7845 C   0  0  0  0  0  0  0  0  0  0  0  0
   -0.9032   -2.7409   -2.6451 C   0  0  1  0  0  0  0  0  0  0  0  0
   -1.1672   -2.7328   -3.7026 H   0  0  0  0  0  0  0  0  0  0  0  0
    0.2540   -1.7956   -2.3735 C   0  0  0  0  0  0  0  0  0  0  0  0
    1.2278   -2.6081   -1.8995 C   0  0  0  0  0  0  0  0  0  0  0  0
    0.7958   -3.8872   -1.8595 N   0  0  0  0  0  0  0  0  0  0  0  0
   -0.3643   -4.0540   -2.2533 N   0  0  0  0  0  0  0  0  0  0  0  0
    2.5999   -2.1502   -1.4767 C   0  0  0  0  0  0  0  0  0  0  0  0
    0.3050   -0.3411   -2.5776 C   0  0  0  0  0  0  0  0  0  0  0  0
    1.3407    0.2661   -2.3753 O   0  0  0  0  0  0  0  0  0  0  0  0
   -0.8919    0.3790   -3.0250 C   0  0  0  0  0  0  0  0  0  0  0  0
   -1.3971    0.4039   -4.2810 C   0  0  0  0  0  0  0  0  0  0  0  0
   -2.6107    1.2469   -4.2993 C   0  0  0  0  0  0  0  0  0  0  0  0
   -3.2923    1.4667   -5.2808 O   0  0  0  0  0  0  0  0  0  0  0  0
   -2.8495    1.7351   -3.0686 N   0  0  0  0  0  0  0  0  0  0  0  0
   -1.8026    1.2309   -2.1720 C   0  0  2  0  0  0  0  0  0  0  0  0
   -2.2444    0.6285   -1.3782 H   0  0  0  0  0  0  0  0  0  0  0  0
   -1.0313    2.3828   -1.5811 C   0  0  0  0  0  0  0  0  0  0  0  0
   -0.3382    2.2057   -0.3983 C   0  0  0  0  0  0  0  0  0  0  0  0
    0.3681    3.2718    0.1368 C   0  0  0  0  0  0  0  0  0  0  0  0
    0.3509    4.4816   -0.5407 C   0  0  0  0  0  0  0  0  0  0  0  0
   -0.3647    4.5836   -1.7184 C   0  0  0  0  0  0  0  0  0  0  0  0
   -1.0210    3.5465   -2.2010 N   0  0  0  0  0  0  0  0  0  0  0  0
   -3.9611    2.6107   -2.6892 C   0  0  0  0  0  0  0  0  0  0  0  0
   -5.1556    1.7592   -2.2546 C   0  0  0  0  0  0  0  0  0  0  0  0
   -6.2702    2.6372   -1.8743 N   0  0  0  0  0  0  0  0  0  0  0  0
   -5.9433    3.4111   -0.6678 C   0  0  0  0  0  0  0  0  0  0  0  0
   -7.1051    4.3535   -0.3422 C   0  0  0  0  0  0  0  0  0  0  0  0
   -8.3036    3.5888   -0.1867 O   0  0  0  0  0  0  0  0  0  0  0  0
   -8.6521    2.8232   -1.3433 C   0  0  0  0  0  0  0  0  0  0  0  0
   -7.5061    1.8652   -1.6790 C   0  0  0  0  0  0  0  0  0  0  0  0
   -0.8736   -0.2400   -5.3496 O   0  5  0  0  0  0  0  0  0  0  0  0
   -1.8378   -2.4188   -0.7310 H   0  0  0  0  0  0  0  0  0  0  0  0
   -2.4436   -1.3656   -2.0317 H   0  0  0  0  0  0  0  0  0  0  0  0
   -2.9234   -3.0788   -1.9777 H   0  0  0  0  0  0  0  0  0  0  0  0
    2.5869   -1.8934   -0.4175 H   0  0  0  0  0  0  0  0  0  0  0  0
    3.3189   -2.9514   -1.6476 H   0  0  0  0  0  0  0  0  0  0  0  0
    2.8862   -1.2746   -2.0594 H   0  0  0  0  0  0  0  0  0  0  0  0
   -0.3472    1.2490    0.1027 H   0  0  0  0  0  0  0  0  0  0  0  0
    0.9185    3.1628    1.0597 H   0  0  0  0  0  0  0  0  0  0  0  0
    0.8896    5.3334   -0.1526 H   0  0  0  0  0  0  0  0  0  0  0  0
   -0.3832    5.5224   -2.2521 H   0  0  0  0  0  0  0  0  0  0  0  0
   -3.6528    3.2524   -1.8638 H   0  0  0  0  0  0  0  0  0  0  0  0
   -4.2454    3.2271   -3.5421 H   0  0  0  0  0  0  0  0  0  0  0  0
   -5.4639    1.1175   -3.0800 H   0  0  0  0  0  0  0  0  0  0  0  0
   -4.8713    1.1428   -1.4018 H   0  0  0  0  0  0  0  0  0  0  0  0
   -5.7814    2.7307    0.1683 H   0  0  0  0  0  0  0  0  0  0  0  0
   -5.0396    3.9945   -0.8434 H   0  0  0  0  0  0  0  0  0  0  0  0
   -6.8917    4.8880    0.5835 H   0  0  0  0  0  0  0  0  0  0  0  0
   -7.2325    5.0685   -1.1550 H   0  0  0  0  0  0  0  0  0  0  0  0
   -9.5576    2.2509   -1.1417 H   0  0  0  0  0  0  0  0  0  0  0  0
   -8.8245    3.4937   -2.1852 H   0  0  0  0  0  0  0  0  0  0  0  0
   -7.7430    1.3203   -2.5928 H   0  0  0  0  0  0  0  0  0  0  0  0
   -7.3691    1.1601   -0.8592 H   0  0  0  0  0  0  0  0  0  0  0  0
  1  2  1  0  0  0  0
  1 33  1  0  0  0  0
  1 34  1  0  0  0  0
  1 35  1  0  0  0  0
  2  3  1  6  0  0  0
  2  7  1  0  0  0  0
  2  4  1  0  0  0  0
  4  5  2  0  0  0  0
  4  9  1  0  0  0  0
  5  6  1  0  0  0  0
  5  8  1  0  0  0  0
  6  7  2  0  0  0  0
  8 36  1  0  0  0  0
  8 37  1  0  0  0  0
  8 38  1  0  0  0  0
  9 10  2  0  0  0  0
  9 11  1  0  0  0  0
 11 16  1  0  0  0  0
 11 12  2  0  0  0  0
 12 13  1  0  0  0  0
 12 32  1  0  0  0  0
 13 14  2  0  0  0  0
 13 15  1  0  0  0  0
 15 16  1  0  0  0  0
 15 24  1  0  0  0  0
 16 17  1  1  0  0  0
 16 18  1  0  0  0  0
 18 23  2  0  0  0  0
 18 19  1  0  0  0  0
 19 20  2  0  0  0  0
 19 39  1  0  0  0  0
 20 21  1  0  0  0  0
 20 40  1  0  0  0  0
 21 22  2  0  0  0  0
 21 41  1  0  0  0  0
 22 23  1  0  0  0  0
 22 42  1  0  0  0  0
 24 25  1  0  0  0  0
 24 43  1  0  0  0  0
 24 44  1  0  0  0  0
 25 26  1  0  0  0  0
 25 45  1  0  0  0  0
 25 46  1  0  0  0  0
 26 31  1  0  0  0  0
 26 27  1  0  0  0  0
 27 28  1  0  0  0  0
 27 47  1  0  0  0  0
 27 48  1  0  0  0  0
 28 29  1  0  0  0  0
 28 49  1  0  0  0  0
 28 50  1  0  0  0  0
 29 30  1  0  0  0  0
 30 31  1  0  0  0  0
 30 51  1  0  0  0  0
 30 52  1  0  0  0  0
 31 53  1  0  0  0  0
 31 54  1  0  0  0  0
M  CHG  1  32  -1
M  END
$$$$
ZINC20218927
 OpenBabel01252620473D

 66 69  0  0  1  0  0  0  0  0999 V2000
    1.6125   10.2414   -4.8395 C   0  0  0  0  0  0  0  0  0  0  0  0
    2.1868    8.9239   -4.3150 C   0  0  0  0  0  0  0  0  0  0  0  0
    1.1429    7.8158   -4.4680 C   0  0  0  0  0  0  0  0  0  0  0  0
    1.6793    6.5852   -3.9781 O   0  0  0  0  0  0  0  0  0  0  0  0
    0.8739    5.4923   -4.0419 C   0  0  0  0  0  0  0  0  0  0  0  0
   -0.4064    5.6022   -4.5652 C   0  0  0  0  0  0  0  0  0  0  0  0
   -1.2231    4.4901   -4.6285 C   0  0  0  0  0  0  0  0  0  0  0  0
   -0.7656    3.2679   -4.1712 C   0  0  0  0  0  0  0  0  0  0  0  0
    0.5098    3.1557   -3.6497 C   0  0  0  0  0  0  0  0  0  0  0  0
    1.3286    4.2663   -3.5790 C   0  0  0  0  0  0  0  0  0  0  0  0
    1.0052    1.8222   -3.1523 C   0  0  2  0  0  0  0  0  0  0  0  0
    1.8544    2.0031   -2.4769 H   0  0  0  0  0  0  0  0  0  0  0  0
    1.3821    0.9371   -4.3174 C   0  0  0  0  0  0  0  0  0  0  0  0
    0.5823   -0.1519   -4.2548 C   0  0  0  0  0  0  0  0  0  0  0  0
   -0.3123   -0.0315   -3.0877 C   0  0  0  0  0  0  0  0  0  0  0  0
   -1.1476   -0.8520   -2.7620 O   0  0  0  0  0  0  0  0  0  0  0  0
   -0.0670    1.1202   -2.4368 N   0  0  0  0  0  0  0  0  0  0  0  0
   -0.7527    1.5927   -1.2315 C   0  0  0  0  0  0  0  0  0  0  0  0
   -0.0127    1.0858    0.0080 C   0  0  0  0  0  0  0  0  0  0  0  0
   -0.7288    1.5792    1.2668 C   0  0  0  0  0  0  0  0  0  0  0  0
   -0.0184    1.0926    2.4569 N   0  0  0  0  0  0  0  0  0  0  0  0
   -0.1082   -0.3710    2.5624 C   0  0  0  0  0  0  0  0  0  0  0  0
    0.6935   -0.8397    3.7796 C   0  0  0  0  0  0  0  0  0  0  0  0
    0.2020   -0.1813    4.9502 O   0  0  0  0  0  0  0  0  0  0  0  0
    0.2752    1.2454    4.8819 C   0  0  0  0  0  0  0  0  0  0  0  0
   -0.5308    1.7352    3.6759 C   0  0  0  0  0  0  0  0  0  0  0  0
    0.6001   -1.1891   -5.1255 O   0  5  0  0  0  0  0  0  0  0  0  0
    2.4134    1.2094   -5.3266 C   0  0  0  0  0  0  0  0  0  0  0  0
    2.6151    0.4084   -6.2239 O   0  0  0  0  0  0  0  0  0  0  0  0
    3.1727    2.4005   -5.2580 C   0  0  0  0  0  0  0  0  0  0  0  0
    4.1276    2.6527   -6.1924 C   0  0  0  0  0  0  0  0  0  0  0  0
    4.8865    3.8430   -6.1239 C   0  0  0  0  0  0  0  0  0  0  0  0
    5.8871    4.2228   -6.9985 C   0  0  0  0  0  0  0  0  0  0  0  0
    6.3570    5.4653   -6.5510 C   0  0  0  0  0  0  0  0  0  0  0  0
    5.6499    5.7857   -5.4431 C   0  0  0  0  0  0  0  0  0  0  0  0
    4.7677    4.8095   -5.1894 O   0  0  0  0  0  0  0  0  0  0  0  0
    2.3630   11.0381   -4.7295 H   0  0  0  0  0  0  0  0  0  0  0  0
    0.7123   10.5037   -4.2644 H   0  0  0  0  0  0  0  0  0  0  0  0
    1.3494   10.1296   -5.9017 H   0  0  0  0  0  0  0  0  0  0  0  0
    3.0870    8.6616   -4.8901 H   0  0  0  0  0  0  0  0  0  0  0  0
    2.4500    9.0357   -3.2528 H   0  0  0  0  0  0  0  0  0  0  0  0
    0.2427    8.0782   -3.8929 H   0  0  0  0  0  0  0  0  0  0  0  0
    0.8797    7.7041   -5.5302 H   0  0  0  0  0  0  0  0  0  0  0  0
   -0.7642    6.5565   -4.9225 H   0  0  0  0  0  0  0  0  0  0  0  0
   -2.2198    4.5751   -5.0358 H   0  0  0  0  0  0  0  0  0  0  0  0
   -1.4056    2.3994   -4.2219 H   0  0  0  0  0  0  0  0  0  0  0  0
    2.3234    4.1791   -3.1677 H   0  0  0  0  0  0  0  0  0  0  0  0
   -0.7675    2.6926   -1.2255 H   0  0  0  0  0  0  0  0  0  0  0  0
   -1.7847    1.2120   -1.2237 H   0  0  0  0  0  0  0  0  0  0  0  0
    0.0022   -0.0141    0.0019 H   0  0  0  0  0  0  0  0  0  0  0  0
    1.0193    1.4665    0.0002 H   0  0  0  0  0  0  0  0  0  0  0  0
   -0.7437    2.6791    1.2729 H   0  0  0  0  0  0  0  0  0  0  0  0
   -1.7608    1.1985    1.2746 H   0  0  0  0  0  0  0  0  0  0  0  0
   -1.1614   -0.6663    2.6788 H   0  0  0  0  0  0  0  0  0  0  0  0
    0.3028   -0.8302    1.6512 H   0  0  0  0  0  0  0  0  0  0  0  0
    0.5825   -1.9280    3.8948 H   0  0  0  0  0  0  0  0  0  0  0  0
    1.7558   -0.5926    3.6363 H   0  0  0  0  0  0  0  0  0  0  0  0
   -0.1406    1.6784    5.8036 H   0  0  0  0  0  0  0  0  0  0  0  0
    1.3254    1.5539    4.7732 H   0  0  0  0  0  0  0  0  0  0  0  0
   -0.4310    2.8268    3.5846 H   0  0  0  0  0  0  0  0  0  0  0  0
   -1.5908    1.4739    3.8103 H   0  0  0  0  0  0  0  0  0  0  0  0
    2.9907    3.1229   -4.4487 H   0  0  0  0  0  0  0  0  0  0  0  0
    4.3095    1.9303   -7.0017 H   0  0  0  0  0  0  0  0  0  0  0  0
    6.2369    3.6715   -7.8587 H   0  0  0  0  0  0  0  0  0  0  0  0
    7.1404    6.0549   -7.0038 H   0  0  0  0  0  0  0  0  0  0  0  0
    5.7761    6.6841   -4.8571 H   0  0  0  0  0  0  0  0  0  0  0  0
  1  2  1  0  0  0  0
  1 37  1  0  0  0  0
  1 38  1  0  0  0  0
  1 39  1  0  0  0  0
  2  3  1  0  0  0  0
  2 40  1  0  0  0  0
  2 41  1  0  0  0  0
  3  4  1  0  0  0  0
  3 42  1  0  0  0  0
  3 43  1  0  0  0  0
  4  5  1  0  0  0  0
  5 10  2  0  0  0  0
  5  6  1  0  0  0  0
  6  7  2  0  0  0  0
  6 44  1  0  0  0  0
  7  8  1  0  0  0  0
  7 45  1  0  0  0  0
  8  9  2  0  0  0  0
  8 46  1  0  0  0  0
  9 10  1  0  0  0  0
  9 11  1  0  0  0  0
 10 47  1  0  0  0  0
 11 12  1  1  0  0  0
 11 17  1  0  0  0  0
 11 13  1  0  0  0  0
 13 14  2  0  0  0  0
 13 28  1  0  0  0  0
 14 15  1  0  0  0  0
 14 27  1  0  0  0  0
 15 16  2  0  0  0  0
 15 17  1  0  0  0  0
 17 18  1  0  0  0  0
 18 19  1  0  0  0  0
 18 48  1  0  0  0  0
 18 49  1  0  0  0  0
 19 20  1  0  0  0  0
 19 50  1  0  0  0  0
 19 51  1  0  0  0  0
 20 21  1  0  0  0  0
 20 52  1  0  0  0  0
 20 53  1  0  0  0  0
 21 26  1  0  0  0  0
 21 22  1  0  0  0  0
 22 23  1  0  0  0  0
 22 54  1  0  0  0  0
 22 55  1  0  0  0  0
 23 24  1  0  0  0  0
 23 56  1  0  0  0  0
 23 57  1  0  0  0  0
 24 25  1  0  0  0  0
 25 26  1  0  0  0  0
 25 58  1  0  0  0  0
 25 59  1  0  0  0  0
 26 60  1  0  0  0  0
 26 61  1  0  0  0  0
 28 29  2  0  0  0  0
 28 30  1  0  0  0  0
 30 31  2  0  0  0  0
 30 62  1  0  0  0  0
 31 32  1  0  0  0  0
 31 63  1  0  0  0  0
 32 36  1  0  0  0  0
 32 33  2  0  0  0  0
 33 34  1  0  0  0  0
 33 64  1  0  0  0  0
 34 35  2  0  0  0  0
 34 65  1  0  0  0  0
 35 36  1  0  0  0  0
 35 66  1  0  0  0  0
M  CHG  1  27  -1
M  END
$$$$
ZINC66582456
 OpenBabel01252620473D

 43 44  0  0  0  0  0  0  0  0999 V2000
   -0.9093    1.8590    0.9331 C   0  0  0  0  0  0  0  0  0  0  0  0
   -0.7192    0.3506    0.7614 C   0  0  0  0  0  0  0  0  0  0  0  0
   -2.0290   -0.3015    0.6878 N   0  0  0  0  0  0  0  0  0  0  0  0
   -2.4569   -1.1141   -0.3010 C   0  0  0  0  0  0  0  0  0  0  0  0
   -3.7154   -1.5072    0.0038 C   0  0  0  0  0  0  0  0  0  0  0  0
   -4.0686   -0.9145    1.2205 C   0  0  0  0  0  0  0  0  0  0  0  0
   -3.0563   -0.1964    1.6344 N   0  0  0  0  0  0  0  0  0  0  0  0
   -4.7301   -2.5760   -0.9620 S   0  0  0  0  0  0  0  0  0  0  0  0
   -6.0760   -2.2845   -0.6114 O   0  0  0  0  0  0  0  0  0  0  0  0
   -4.2550   -2.4889   -2.2984 O   0  0  0  0  0  0  0  0  0  0  0  0
   -4.4333   -4.1239   -0.4540 N   0  0  0  0  0  2  0  0  0  0  0  0
   -5.1059   -5.1973   -1.0500 C   0  0  0  0  0  0  0  0  0  0  0  0
   -6.0142   -4.9658   -2.0670 C   0  0  0  0  0  0  0  0  0  0  0  0
   -6.6830   -6.0400   -2.6594 C   0  0  0  0  0  0  0  0  0  0  0  0
   -6.4315   -7.3427   -2.2221 C   0  0  0  0  0  0  0  0  0  0  0  0
   -5.5255   -7.5672   -1.2079 C   0  0  0  0  0  0  0  0  0  0  0  0
   -4.8561   -6.5019   -0.6223 C   0  0  0  0  0  0  0  0  0  0  0  0
   -3.9602   -6.7291    0.3729 O   0  0  0  0  0  0  0  0  0  0  0  0
   -3.7529   -8.0886    0.7614 C   0  0  0  0  0  0  0  0  0  0  0  0
   -7.6538   -5.7989   -3.7449 C   0  0  0  0  0  0  0  0  0  0  0  0
   -7.4734   -4.8889   -4.5308 O   0  0  0  0  0  0  0  0  0  0  0  0
   -8.7403   -6.5874   -3.8648 N   0  0  0  0  0  0  0  0  0  0  0  0
   -9.6397   -6.4260   -5.0098 C   0  0  0  0  0  0  0  0  0  0  0  0
   -9.0217   -7.6059   -2.8501 C   0  0  0  0  0  0  0  0  0  0  0  0
    0.0652    2.3441    0.9878 H   0  0  0  0  0  0  0  0  0  0  0  0
   -1.4647    2.2543    0.0826 H   0  0  0  0  0  0  0  0  0  0  0  0
   -1.4639    2.0531    1.8512 H   0  0  0  0  0  0  0  0  0  0  0  0
   -0.1646    0.1564   -0.1567 H   0  0  0  0  0  0  0  0  0  0  0  0
   -0.1638   -0.0448    1.6119 H   0  0  0  0  0  0  0  0  0  0  0  0
   -1.8957   -1.3992   -1.1785 H   0  0  0  0  0  0  0  0  0  0  0  0
   -5.0122   -1.0332    1.7323 H   0  0  0  0  0  0  0  0  0  0  0  0
   -6.2063   -3.9573   -2.4022 H   0  0  0  0  0  0  0  0  0  0  0  0
   -6.9474   -8.1744   -2.6787 H   0  0  0  0  0  0  0  0  0  0  0  0
   -5.3329   -8.5751   -0.8711 H   0  0  0  0  0  0  0  0  0  0  0  0
   -4.6935   -8.5139    1.1113 H   0  0  0  0  0  0  0  0  0  0  0  0
   -3.3917   -8.6598   -0.0938 H   0  0  0  0  0  0  0  0  0  0  0  0
   -3.0154   -8.1290    1.5630 H   0  0  0  0  0  0  0  0  0  0  0  0
   -9.3085   -7.0688   -5.8254 H   0  0  0  0  0  0  0  0  0  0  0  0
  -10.6529   -6.7024   -4.7178 H   0  0  0  0  0  0  0  0  0  0  0  0
   -9.6270   -5.3867   -5.3382 H   0  0  0  0  0  0  0  0  0  0  0  0
   -8.3039   -7.5147   -2.0349 H   0  0  0  0  0  0  0  0  0  0  0  0
  -10.0309   -7.4642   -2.4632 H   0  0  0  0  0  0  0  0  0  0  0  0
   -8.9398   -8.5966   -3.2972 H   0  0  0  0  0  0  0  0  0  0  0  0
  1  2  1  0  0  0  0
  1 25  1  0  0  0  0
  1 26  1  0  0  0  0
  1 27  1  0  0  0  0
  2  3  1  0  0  0  0
  2 28  1  0  0  0  0
  2 29  1  0  0  0  0
  3  7  1  0  0  0  0
  3  4  1  0  0  0  0
  4  5  2  0  0  0  0
  4 30  1  0  0  0  0
  5  6  1  0  0  0  0
  5  8  1  0  0  0  0
  6  7  2  0  0  0  0
  6 31  1  0  0  0  0
  8  9  2  0  0  0  0
  8 10  2  0  0  0  0
  8 11  1  0  0  0  0
 11 12  1  0  0  0  0
 12 17  2  0  0  0  0
 12 13  1  0  0  0  0
 13 14  2  0  0  0  0
 13 32  1  0  0  0  0
 14 15  1  0  0  0  0
 14 20  1  0  0  0  0
 15 16  2  0  0  0  0
 15 33  1  0  0  0  0
 16 17  1  0  0  0  0
 16 34  1  0  0  0  0
 17 18  1  0  0  0  0
 18 19  1  0  0  0  0
 19 35  1  0  0  0  0
 19 36  1  0  0  0  0
 19 37  1  0  0  0  0
 20 21  2  0  0  0  0
 20 22  1  0  0  0  0
 22 23  1  0  0  0  0
 22 24  1  0  0  0  0
 23 38  1  0  0  0  0
 23 39  1  0  0  0  0
 23 40  1  0  0  0  0
 24 41  1  0  0  0  0
 24 42  1  0  0  0  0
 24 43  1  0  0  0  0
M  END
$$$$
ZINC59886351
 OpenBabel01252620473D

 52 55  0  0  0  0  0  0  0  0999 V2000
   -0.0166    1.3746    0.0096 C   0  0  0  0  0  0  0  0  0  0  0  0
    1.1665    2.1018    0.0022 C   0  0  0  0  0  0  0  0  0  0  0  0
    2.3873    1.4614   -0.0128 C   0  0  0  0  0  0  0  0  0  0  0  0
    2.4275    0.0707   -0.0207 C   0  0  0  0  0  0  0  0  0  0  0  0
    1.2228   -0.6700   -0.0131 C   0  0  0  0  0  0  0  0  0  0  0  0
    0.0021   -0.0041    0.0020 C   0  0  0  0  0  0  0  0  0  0  0  0
    1.3301   -2.1378   -0.0215 C   0  0  0  0  0  0  0  0  0  0  0  0
    2.5179   -2.6924   -0.0353 N   0  0  0  0  0  0  0  0  0  0  0  0
    3.6177   -2.0389   -0.0423 N   0  0  0  0  0  0  0  0  0  0  0  0
    4.4487   -2.5391   -0.0526 H   0  0  0  0  0  0  0  0  0  0  0  0
    3.6837   -0.6916   -0.0362 C   0  0  0  0  0  0  0  0  0  0  0  0
    4.7588   -0.1206   -0.0430 O   0  0  0  0  0  0  0  0  0  0  0  0
    0.1146   -2.9757   -0.0138 C   0  0  0  0  0  0  0  0  0  0  0  0
   -0.9834   -2.4538   -0.0006 O   0  0  0  0  0  0  0  0  0  0  0  0
    0.2221   -4.3192   -0.0216 N   0  0  0  0  0  0  0  0  0  0  0  0
   -0.9841   -5.1506   -0.0140 C   0  0  0  0  0  0  0  0  0  0  0  0
   -0.5914   -6.6055   -0.0250 C   0  0  0  0  0  0  0  0  0  0  0  0
   -0.4174   -7.2654   -1.2274 C   0  0  0  0  0  0  0  0  0  0  0  0
   -0.0572   -8.5998   -1.2375 C   0  0  0  0  0  0  0  0  0  0  0  0
    0.1295   -9.2745   -0.0453 C   0  0  0  0  0  0  0  0  0  0  0  0
   -0.0436   -8.6145    1.1567 C   0  0  0  0  0  0  0  0  0  0  0  0
   -0.3997   -7.2786    1.1668 C   0  0  0  0  0  0  0  0  0  0  0  0
    0.1938   -9.4746    2.6761 S   0  0  0  0  0  0  0  0  0  0  0  0
   -0.5603   -8.7784    3.6589 O   0  0  0  0  0  0  0  0  0  0  0  0
   -0.0064  -10.8536    2.3978 O   0  0  0  0  0  0  0  0  0  0  0  0
    1.7873   -9.3023    3.0924 N   0  0  0  0  0  0  0  0  0  0  0  0
    2.3206   -7.9768    3.4165 C   0  0  0  0  0  0  0  0  0  0  0  0
    3.6531   -8.1259    4.1044 C   0  0  0  0  0  0  0  0  0  0  0  0
    3.7114   -8.2373    5.4813 C   0  0  0  0  0  0  0  0  0  0  0  0
    4.9329   -8.3741    6.1136 C   0  0  0  0  0  0  0  0  0  0  0  0
    6.0977   -8.3991    5.3699 C   0  0  0  0  0  0  0  0  0  0  0  0
    6.0406   -8.2876    3.9912 C   0  0  0  0  0  0  0  0  0  0  0  0
    4.8158   -8.1567    3.3584 C   0  0  0  0  0  0  0  0  0  0  0  0
    7.1785   -8.3115    3.2633 F   0  0  0  0  0  0  0  0  0  0  0  0
   -0.9627    1.8952    0.0260 H   0  0  0  0  0  0  0  0  0  0  0  0
    1.1298    3.1812    0.0080 H   0  0  0  0  0  0  0  0  0  0  0  0
    3.3033    2.0335   -0.0189 H   0  0  0  0  0  0  0  0  0  0  0  0
   -0.9228   -0.5617    0.0075 H   0  0  0  0  0  0  0  0  0  0  0  0
    1.0981   -4.7356   -0.0321 H   0  0  0  0  0  0  0  0  0  0  0  0
   -1.5662   -4.9382    0.8828 H   0  0  0  0  0  0  0  0  0  0  0  0
   -1.5835   -4.9293   -0.8971 H   0  0  0  0  0  0  0  0  0  0  0  0
   -0.5632   -6.7384   -2.1587 H   0  0  0  0  0  0  0  0  0  0  0  0
    0.0780   -9.1155   -2.1768 H   0  0  0  0  0  0  0  0  0  0  0  0
    0.4102  -10.3173   -0.0532 H   0  0  0  0  0  0  0  0  0  0  0  0
   -0.5312   -6.7619    2.1060 H   0  0  0  0  0  0  0  0  0  0  0  0
    2.3677  -10.0790    3.1217 H   0  0  0  0  0  0  0  0  0  0  0  0
    2.4475   -7.4020    2.4992 H   0  0  0  0  0  0  0  0  0  0  0  0
    1.6265   -7.4576    4.0775 H   0  0  0  0  0  0  0  0  0  0  0  0
    2.8018   -8.2172    6.0633 H   0  0  0  0  0  0  0  0  0  0  0  0
    4.9772   -8.4611    7.1892 H   0  0  0  0  0  0  0  0  0  0  0  0
    7.0520   -8.5053    5.8642 H   0  0  0  0  0  0  0  0  0  0  0  0
    4.7697   -8.0741    2.2825 H   0  0  0  0  0  0  0  0  0  0  0  0
  1  6  2  0  0  0  0
  1  2  1  0  0  0  0
  1 35  1  0  0  0  0
  2  3  2  0  0  0  0
  2 36  1  0  0  0  0
  3  4  1  0  0  0  0
  3 37  1  0  0  0  0
  4 11  1  0  0  0  0
  4  5  2  0  0  0  0
  5  6  1  0  0  0  0
  5  7  1  0  0  0  0
  6 38  1  0  0  0  0
  7  8  2  0  0  0  0
  7 13  1  0  0  0  0
  8  9  1  0  0  0  0
  9 10  1  0  0  0  0
  9 11  1  0  0  0  0
 11 12  2  0  0  0  0
 13 14  2  0  0  0  0
 13 15  1  0  0  0  0
 15 16  1  0  0  0  0
 15 39  1  0  0  0  0
 16 17  1  0  0  0  0
 16 40  1  0  0  0  0
 16 41  1  0  0  0  0
 17 22  2  0  0  0  0
 17 18  1  0  0  0  0
 18 19  2  0  0  0  0
 18 42  1  0  0  0  0
 19 20  1  0  0  0  0
 19 43  1  0  0  0  0
 20 21  2  0  0  0  0
 20 44  1  0  0  0  0
 21 22  1  0  0  0  0
 21 23  1  0  0  0  0
 22 45  1  0  0  0  0
 23 24  2  0  0  0  0
 23 25  2  0  0  0  0
 23 26  1  0  0  0  0
 26 27  1  0  0  0  0
 26 46  1  0  0  0  0
 27 28  1  0  0  0  0
 27 47  1  0  0  0  0
 27 48  1  0  0  0  0
 28 33  2  0  0  0  0
 28 29  1  0  0  0  0
 29 30  2  0  0  0  0
 29 49  1  0  0  0  0
 30 31  1  0  0  0  0
 30 50  1  0  0  0  0
 31 32  2  0  0  0  0
 31 51  1  0  0  0  0
 32 33  1  0  0  0  0
 32 34  1  0  0  0  0
 33 52  1  0  0  0  0
M  END
$$$$
ZINC35389400
 OpenBabel01252620473D

 35 36  0  0  1  0  0  0  0  0999 V2000
    0.0231    1.5304    0.0169 C   0  0  0  0  0  0  0  0  0  0  0  0
    0.0404    0.0005    0.0100 C   0  0  0  0  0  0  0  0  0  0  0  0
    0.7958   -0.5066    1.2401 C   0  0  0  0  0  0  0  0  0  0  0  0
   -1.3958   -0.5259    0.0406 C   0  0  0  0  0  0  0  0  0  0  0  0
    0.7386   -0.4959   -1.2577 C   0  0  1  0  0  0  0  0  0  0  0  0
    0.2005   -0.1347   -2.1341 H   0  0  0  0  0  0  0  0  0  0  0  0
    2.1533    0.0226   -1.2879 C   0  0  0  0  0  0  0  0  0  0  0  0
    3.0521   -0.6285   -0.7832 O   0  0  0  0  0  0  0  0  0  0  0  0
    2.3990    1.0931   -1.8171 O   0  0  0  0  0  1  0  0  0  0  0  0
    0.7551   -1.9608   -1.2644 N   0  0  0  0  0  0  0  0  0  0  0  0
    0.8378   -2.6285   -2.4322 C   0  0  0  0  0  0  0  0  0  0  0  0
    0.8043   -2.0193   -3.4851 O   0  0  0  0  0  0  0  0  0  0  0  0
    0.9683   -4.0902   -2.4340 C   0  0  0  0  0  0  0  0  0  0  0  0
    1.1770   -4.7821   -3.6326 C   0  0  0  0  0  0  0  0  0  0  0  0
    1.2896   -6.0984   -3.5949 N   0  0  0  0  0  0  0  0  0  0  0  0
    1.2099   -6.7671   -2.4605 C   0  0  0  0  0  0  0  0  0  0  0  0
    1.0085   -6.1784   -1.2468 N   0  0  0  0  0  0  0  0  0  0  0  0
    0.8907   -4.8167   -1.2265 C   0  0  0  0  0  0  0  0  0  0  0  0
    0.7148   -4.2330   -0.1711 O   0  0  0  0  0  0  0  0  0  0  0  0
    0.9489   -7.0144   -0.1547 C   0  0  0  0  0  0  0  0  0  0  0  0
    1.0900   -8.3249   -0.3540 C   0  0  0  0  0  0  0  0  0  0  0  0
    1.3142   -8.4065   -2.1202 S   0  0  0  0  0  0  0  0  0  0  0  0
    1.0464    1.9054   -0.0049 H   0  0  0  0  0  0  0  0  0  0  0  0
   -0.5150    1.8916   -0.8595 H   0  0  0  0  0  0  0  0  0  0  0  0
   -0.4742    1.8840    0.9200 H   0  0  0  0  0  0  0  0  0  0  0  0
    0.2984   -0.1529    2.1432 H   0  0  0  0  0  0  0  0  0  0  0  0
    0.8081   -1.5965    1.2351 H   0  0  0  0  0  0  0  0  0  0  0  0
    1.8190   -0.1316    1.2182 H   0  0  0  0  0  0  0  0  0  0  0  0
   -1.9340   -0.1647   -0.8358 H   0  0  0  0  0  0  0  0  0  0  0  0
   -1.3835   -1.6158    0.0357 H   0  0  0  0  0  0  0  0  0  0  0  0
   -1.8932   -0.1723    0.9437 H   0  0  0  0  0  0  0  0  0  0  0  0
    0.7066   -2.4502   -0.4283 H   0  0  0  0  0  0  0  0  0  0  0  0
    1.2445   -4.2506   -4.5704 H   0  0  0  0  0  0  0  0  0  0  0  0
    0.7921   -6.6188    0.8380 H   0  0  0  0  0  0  0  0  0  0  0  0
    1.0735   -9.1284    0.3675 H   0  0  0  0  0  0  0  0  0  0  0  0
  1  2  1  0  0  0  0
  1 23  1  0  0  0  0
  1 24  1  0  0  0  0
  1 25  1  0  0  0  0
  2  3  1  0  0  0  0
  2  4  1  0  0  0  0
  2  5  1  0  0  0  0
  3 26  1  0  0  0  0
  3 27  1  0  0  0  0
  3 28  1  0  0  0  0
  4 29  1  0  0  0  0
  4 30  1  0  0  0  0
  4 31  1  0  0  0  0
  5  6  1  6  0  0  0
  5  7  1  0  0  0  0
  5 10  1  0  0  0  0
  7  8  2  0  0  0  0
  7  9  1  0  0  0  0
 10 11  1  0  0  0  0
 10 32  1  0  0  0  0
 11 12  2  0  0  0  0
 11 13  1  0  0  0  0
 13 18  1  0  0  0  0
 13 14  2  0  0  0  0
 14 15  1  0  0  0  0
 14 33  1  0  0  0  0
 15 16  2  0  0  0  0
 16 22  1  0  0  0  0
 16 17  1  0  0  0  0
 17 18  1  0  0  0  0
 17 20  1  0  0  0  0
 18 19  2  0  0  0  0
 20 21  2  0  0  0  0
 20 34  1  0  0  0  0
 21 22  1  0  0  0  0
 21 35  1  0  0  0  0
M  END
$$$$
ZINC13150292
 OpenBabel01252620473D

 32 33  0  0  0  0  0  0  0  0999 V2000
    8.5990    7.6568   -0.6331 C   0  0  0  0  0  0  0  0  0  0  0  0
    9.8578    8.1457   -0.3573 C   0  0  0  0  0  0  0  0  0  0  0  0
   10.8931    7.9500   -1.2567 C   0  0  0  0  0  0  0  0  0  0  0  0
   10.6737    7.2578   -2.4364 C   0  0  0  0  0  0  0  0  0  0  0  0
    9.4217    6.7582   -2.7238 C   0  0  0  0  0  0  0  0  0  0  0  0
    8.3707    6.9519   -1.8202 C   0  0  0  0  0  0  0  0  0  0  0  0
    7.0324    6.4228   -2.1194 C   0  0  0  0  0  0  0  0  0  0  0  0
    6.0616    6.4599   -1.1734 C   0  0  0  0  0  0  0  0  0  0  0  0
    4.6240    6.1350   -1.2853 C   0  0  0  0  0  0  0  0  0  0  0  0
    4.1310    5.7686   -2.3356 O   0  0  0  0  0  0  0  0  0  0  0  0
    3.9012    6.2624   -0.1852 N   0  0  0  0  0  0  0  0  0  0  0  0
    4.4507    6.6736    0.9755 C   0  0  0  0  0  0  0  0  0  0  0  0
    3.9079    6.8383    2.0514 O   0  0  0  0  0  0  0  0  0  0  0  0
    6.1683    6.9159    0.5518 S   0  0  0  0  0  0  0  0  0  0  0  0
    2.4694    5.9555   -0.2301 C   0  0  0  0  0  0  0  0  0  0  0  0
    2.2542    4.4770    0.0993 C   0  0  0  0  0  0  0  0  0  0  0  0
    0.7589    4.1564    0.0524 C   0  0  0  0  0  0  0  0  0  0  0  0
    0.5469    2.7001    0.3769 C   0  0  0  0  0  0  0  0  0  0  0  0
    1.4946    1.9913    0.6206 O   0  0  0  0  0  0  0  0  0  0  0  0
   12.6148    8.6307   -0.8718 Br  0  0  0  0  0  0  0  0  0  0  0  0
    7.7918    7.8141    0.0670 H   0  0  0  0  0  0  0  0  0  0  0  0
   10.0366    8.6861    0.5605 H   0  0  0  0  0  0  0  0  0  0  0  0
   11.4858    7.1088   -3.1325 H   0  0  0  0  0  0  0  0  0  0  0  0
    9.2522    6.2184   -3.6438 H   0  0  0  0  0  0  0  0  0  0  0  0
    6.8223    6.0045   -3.0927 H   0  0  0  0  0  0  0  0  0  0  0  0
    2.0840    6.1653   -1.2278 H   0  0  0  0  0  0  0  0  0  0  0  0
    1.9429    6.5707    0.4996 H   0  0  0  0  0  0  0  0  0  0  0  0
    2.6397    4.2672    1.0971 H   0  0  0  0  0  0  0  0  0  0  0  0
    2.7807    3.8618   -0.6304 H   0  0  0  0  0  0  0  0  0  0  0  0
    0.3734    4.3662   -0.9453 H   0  0  0  0  0  0  0  0  0  0  0  0
    0.2324    4.7716    0.7821 H   0  0  0  0  0  0  0  0  0  0  0  0
   -0.6947    2.1904    0.3951 O   0  0  0  0  0  1  0  0  0  0  0  0
  1  6  2  0  0  0  0
  1  2  1  0  0  0  0
  1 21  1  0  0  0  0
  2  3  2  0  0  0  0
  2 22  1  0  0  0  0
  3  4  1  0  0  0  0
  3 20  1  0  0  0  0
  4  5  2  0  0  0  0
  4 23  1  0  0  0  0
  5  6  1  0  0  0  0
  5 24  1  0  0  0  0
  6  7  1  0  0  0  0
  7  8  2  0  0  0  0
  7 25  1  0  0  0  0
  8 14  1  0  0  0  0
  8  9  1  0  0  0  0
  9 10  2  0  0  0  0
  9 11  1  0  0  0  0
 11 12  1  0  0  0  0
 11 15  1  0  0  0  0
 12 13  2  0  0  0  0
 12 14  1  0  0  0  0
 15 16  1  0  0  0  0
 15 26  1  0  0  0  0
 15 27  1  0  0  0  0
 16 17  1  0  0  0  0
 16 28  1  0  0  0  0
 16 29  1  0  0  0  0
 17 18  1  0  0  0  0
 17 30  1  0  0  0  0
 17 31  1  0  0  0  0
 18 19  2  0  0  0  0
 18 32  1  0  0  0  0
M  END
$$$$
ZINC66735608
 OpenBabel01252620473D

 36 37  0  0  0  0  0  0  0  0999 V2000
    0.5431    1.5107   -0.1386 C   0  0  0  0  0  0  0  0  0  0  0  0
    0.5737    0.0040   -0.1535 C   0  0  0  0  0  0  0  0  0  0  0  0
    1.1145   -0.6005    0.7483 O   0  0  0  0  0  0  0  0  0  0  0  0
    0.0001   -0.6716   -1.1688 N   0  0  0  0  0  0  0  0  0  0  0  0
    0.1091   -2.0666   -1.2318 C   0  0  0  0  0  0  0  0  0  0  0  0
    0.1188   -2.8141   -0.0657 C   0  0  0  0  0  0  0  0  0  0  0  0
    0.2277   -4.2029   -0.1332 C   0  0  0  0  0  0  0  0  0  0  0  0
    0.3262   -4.8321   -1.3750 C   0  0  0  0  0  0  0  0  0  0  0  0
    0.3163   -4.0810   -2.5320 C   0  0  0  0  0  0  0  0  0  0  0  0
    0.2021   -2.7026   -2.4663 C   0  0  0  0  0  0  0  0  0  0  0  0
    0.1865   -1.9728   -3.6031 F   0  0  0  0  0  0  0  0  0  0  0  0
    0.2391   -5.0069    1.1084 C   0  0  0  0  0  0  0  0  0  0  0  0
    0.1439   -4.3954    2.3110 O   0  5  0  0  0  0  0  0  0  0  0  0
    0.3406   -6.3017    1.0437 N   0  0  0  0  0  0  0  0  0  0  0  0
    0.3534   -7.2018    2.4336 S   0  0  0  0  0  0  0  0  0  0  0  0
    1.5501   -6.8673    3.1231 O   0  0  0  0  0  0  0  0  0  0  0  0
   -0.9314   -7.0569    3.0232 O   0  0  0  0  0  0  0  0  0  0  0  0
    0.5017   -8.8920    1.9584 C   0  0  0  0  0  0  0  0  0  0  0  0
   -0.6360   -9.6436    1.7187 C   0  0  0  0  0  0  0  0  0  0  0  0
   -0.5306  -10.9705    1.3458 C   0  0  0  0  0  0  0  0  0  0  0  0
    0.7145  -11.5564    1.2097 C   0  0  0  0  0  0  0  0  0  0  0  0
    1.8673  -10.8018    1.4502 C   0  0  0  0  0  0  0  0  0  0  0  0
    1.7504   -9.4601    1.8210 C   0  0  0  0  0  0  0  0  0  0  0  0
    3.1610  -11.4001    1.3122 C   0  0  0  0  0  0  0  0  0  0  0  0
    4.1872  -11.8748    1.2027 N   0  0  0  0  0  0  0  0  0  0  0  0
    0.8172  -12.8535    0.8462 F   0  0  0  0  0  0  0  0  0  0  0  0
    1.4236    1.8970   -0.6519 H   0  0  0  0  0  0  0  0  0  0  0  0
   -0.3560    1.8609   -0.6456 H   0  0  0  0  0  0  0  0  0  0  0  0
    0.5396    1.8638    0.8926 H   0  0  0  0  0  0  0  0  0  0  0  0
   -0.4883   -0.1918   -1.8560 H   0  0  0  0  0  0  0  0  0  0  0  0
    0.0427   -2.3229    0.8931 H   0  0  0  0  0  0  0  0  0  0  0  0
    0.4106   -5.9074   -1.4301 H   0  0  0  0  0  0  0  0  0  0  0  0
    0.3934   -4.5698   -3.4920 H   0  0  0  0  0  0  0  0  0  0  0  0
   -1.6109   -9.1910    1.8239 H   0  0  0  0  0  0  0  0  0  0  0  0
   -1.4225  -11.5508    1.1608 H   0  0  0  0  0  0  0  0  0  0  0  0
    2.6363   -8.8701    2.0040 H   0  0  0  0  0  0  0  0  0  0  0  0
  1  2  1  0  0  0  0
  1 27  1  0  0  0  0
  1 28  1  0  0  0  0
  1 29  1  0  0  0  0
  2  3  2  0  0  0  0
  2  4  1  0  0  0  0
  4  5  1  0  0  0  0
  4 30  1  0  0  0  0
  5 10  2  0  0  0  0
  5  6  1  0  0  0  0
  6  7  2  0  0  0  0
  6 31  1  0  0  0  0
  7  8  1  0  0  0  0
  7 12  1  0  0  0  0
  8  9  2  0  0  0  0
  8 32  1  0  0  0  0
  9 10  1  0  0  0  0
  9 33  1  0  0  0  0
 10 11  1  0  0  0  0
 12 13  1  0  0  0  0
 12 14  2  0  0  0  0
 14 15  1  0  0  0  0
 15 16  2  0  0  0  0
 15 17  2  0  0  0  0
 15 18  1  0  0  0  0
 18 23  2  0  0  0  0
 18 19  1  0  0  0  0
 19 20  2  0  0  0  0
 19 34  1  0  0  0  0
 20 21  1  0  0  0  0
 20 35  1  0  0  0  0
 21 22  2  0  0  0  0
 21 26  1  0  0  0  0
 22 23  1  0  0  0  0
 22 24  1  0  0  0  0
 23 36  1  0  0  0  0
 24 25  3  0  0  0  0
M  CHG  1  13  -1
M  END
$$$$
ZINC34734490
 OpenBabel01252620473D

 19 19  0  0  1  0  0  0  0  0999 V2000
   -0.0187    1.5258    0.0104 C   0  0  0  0  0  0  0  0  0  0  0  0
    0.0021   -0.0041    0.0020 C   0  0  2  0  0  0  0  0  0  0  0  0
    0.5123   -0.3556   -0.8948 H   0  0  0  0  0  0  0  0  0  0  0  0
   -1.4117   -0.5257    0.0127 C   0  0  0  0  0  0  0  0  0  0  0  0
   -2.0255   -0.6447   -1.0340 O   0  0  0  0  0  0  0  0  0  0  0  0
   -1.9418   -0.8287    1.0681 O   0  0  0  0  0  1  0  0  0  0  0  0
    0.8794   -0.6050    1.4716 S   0  0  0  0  0  0  0  0  0  0  0  0
    2.5331   -0.0421    1.2407 C   0  0  0  0  0  0  0  0  0  0  0  0
    3.5348   -0.3334    2.2075 C   0  0  0  0  0  0  0  0  0  0  0  0
    3.2725   -0.9749    3.2106 O   0  0  0  0  0  0  0  0  0  0  0  0
    4.7882    0.1230    1.9794 N   0  0  0  0  0  0  0  0  0  0  0  0
    5.5024   -0.0527    2.6119 H   0  0  0  0  0  0  0  0  0  0  0  0
    5.0253    0.8342    0.8419 C   0  0  0  0  0  0  0  0  0  0  0  0
    6.2681    1.3003    0.5920 O   0  5  0  0  0  0  0  0  0  0  0  0
    4.0573    1.0712   -0.0153 N   0  0  0  0  0  0  0  0  0  0  0  0
    2.8584    0.6484    0.1691 N   0  0  0  0  0  0  0  0  0  0  0  0
    1.0039    1.9031    0.0027 H   0  0  0  0  0  0  0  0  0  0  0  0
   -0.5459    1.8868   -0.8726 H   0  0  0  0  0  0  0  0  0  0  0  0
   -0.5289    1.8773    0.9072 H   0  0  0  0  0  0  0  0  0  0  0  0
  1  2  1  0  0  0  0
  1 17  1  0  0  0  0
  1 18  1  0  0  0  0
  1 19  1  0  0  0  0
  2  3  1  6  0  0  0
  2  4  1  0  0  0  0
  2  7  1  0  0  0  0
  4  5  2  0  0  0  0
  4  6  1  0  0  0  0
  7  8  1  0  0  0  0
  8 16  2  0  0  0  0
  8  9  1  0  0  0  0
  9 10  2  0  0  0  0
  9 11  1  0  0  0  0
 11 12  1  0  0  0  0
 11 13  1  0  0  0  0
 13 14  1  0  0  0  0
 13 15  2  0  0  0  0
 15 16  1  0  0  0  0
M  CHG  1  14  -1
M  END
$$$$
ZINC59293932
 OpenBabel01252620473D

 48 50  0  0  1  0  0  0  0  0999 V2000
    1.1814   -1.2448   -2.2063 C   0  0  0  0  0  0  0  0  0  0  0  0
    0.4029   -1.2136   -0.8896 C   0  0  0  0  0  0  0  0  0  0  0  0
    1.2078   -1.7681    0.1529 O   0  0  0  0  0  0  0  0  0  0  0  0
    0.6640   -1.8150    1.3884 C   0  0  0  0  0  0  0  0  0  0  0  0
   -0.4644   -1.3953    1.5735 O   0  0  0  0  0  0  0  0  0  0  0  0
    1.3990   -2.3471    2.4587 C   0  0  0  0  0  0  0  0  0  0  0  0
    1.4705   -3.6989    2.5797 C   0  0  0  0  0  0  0  0  0  0  0  0
    2.1439   -4.2501    3.6806 N   0  0  0  0  0  0  0  0  0  0  0  0
    2.5597   -5.5174    3.7258 C   0  0  0  0  0  0  0  0  0  0  0  0
    2.4219   -6.2661    2.7823 O   0  0  0  0  0  0  0  0  0  0  0  0
    3.2154   -5.9758    5.0193 C   0  0  1  0  0  0  0  0  0  0  0  0
    4.2838   -6.1444    4.8842 H   0  0  0  0  0  0  0  0  0  0  0  0
    2.8975   -4.4960    6.0742 S   0  0  0  0  0  0  0  0  0  0  0  0
    2.4144   -3.4052    4.7620 C   0  0  0  0  0  0  0  0  0  0  0  0
    2.3395   -2.0599    4.7363 C   0  0  0  0  0  0  0  0  0  0  0  0
    2.0682   -1.3925    3.4037 C   0  0  1  0  0  0  0  0  0  0  0  0
    1.4199   -0.5306    3.5616 H   0  0  0  0  0  0  0  0  0  0  0  0
    3.3695   -0.9291    2.8013 C   0  0  0  0  0  0  0  0  0  0  0  0
    4.3527   -1.8500    2.4902 C   0  0  0  0  0  0  0  0  0  0  0  0
    5.5467   -1.4277    1.9384 C   0  0  0  0  0  0  0  0  0  0  0  0
    5.7585   -0.0782    1.6960 C   0  0  0  0  0  0  0  0  0  0  0  0
    4.7702    0.8438    2.0087 C   0  0  0  0  0  0  0  0  0  0  0  0
    3.5760    0.4158    2.5555 C   0  0  0  0  0  0  0  0  0  0  0  0
    6.9324    0.3398    1.1536 O   0  0  0  0  0  0  0  0  0  0  0  0
    7.0810    1.7436    0.9318 C   0  0  0  0  0  0  0  0  0  0  0  0
    2.5155   -1.2870    5.9289 C   0  0  0  0  0  0  0  0  0  0  0  0
    2.6550   -0.6739    6.8750 N   0  0  0  0  0  0  0  0  0  0  0  0
    2.5264   -7.2205    5.5820 C   0  0  0  0  0  0  0  0  0  0  0  0
    3.2816   -7.7093    6.7911 C   0  0  0  0  0  0  0  0  0  0  0  0
    4.2785   -7.1170    7.1677 O   0  0  0  0  0  0  0  0  0  0  0  0
    2.8957   -8.6971    7.3926 O   0  0  0  0  0  1  0  0  0  0  0  0
    0.8928   -4.5120    1.6403 N   0  0  0  0  0  0  0  0  0  0  0  0
    1.4363   -2.2753   -2.4534 H   0  0  0  0  0  0  0  0  0  0  0  0
    0.5674   -0.8218   -3.0015 H   0  0  0  0  0  0  0  0  0  0  0  0
    2.0950   -0.6594   -2.1022 H   0  0  0  0  0  0  0  0  0  0  0  0
    0.1479   -0.1830   -0.6425 H   0  0  0  0  0  0  0  0  0  0  0  0
   -0.5107   -1.7990   -0.9936 H   0  0  0  0  0  0  0  0  0  0  0  0
    4.1873   -2.9005    2.6790 H   0  0  0  0  0  0  0  0  0  0  0  0
    6.3146   -2.1474    1.6961 H   0  0  0  0  0  0  0  0  0  0  0  0
    4.9328    1.8949    1.8210 H   0  0  0  0  0  0  0  0  0  0  0  0
    2.8046    1.1327    2.7951 H   0  0  0  0  0  0  0  0  0  0  0  0
    8.0606    1.9410    0.4964 H   0  0  0  0  0  0  0  0  0  0  0  0
    6.3040    2.0879    0.2493 H   0  0  0  0  0  0  0  0  0  0  0  0
    6.9918    2.2729    1.8805 H   0  0  0  0  0  0  0  0  0  0  0  0
    1.5044   -6.9721    5.8680 H   0  0  0  0  0  0  0  0  0  0  0  0
    2.5114   -8.0022    4.8225 H   0  0  0  0  0  0  0  0  0  0  0  0
    0.5424   -4.1321    0.8195 H   0  0  0  0  0  0  0  0  0  0  0  0
    0.8342   -5.4676    1.7962 H   0  0  0  0  0  0  0  0  0  0  0  0
  1  2  1  0  0  0  0
  1 33  1  0  0  0  0
  1 34  1  0  0  0  0
  1 35  1  0  0  0  0
  2  3  1  0  0  0  0
  2 36  1  0  0  0  0
  2 37  1  0  0  0  0
  3  4  1  0  0  0  0
  4  5  2  0  0  0  0
  4  6  1  0  0  0  0
  6 16  1  0  0  0  0
  6  7  2  0  0  0  0
  7  8  1  0  0  0  0
  7 32  1  0  0  0  0
  8 14  1  0  0  0  0
  8  9  1  0  0  0  0
  9 10  2  0  0  0  0
  9 11  1  0  0  0  0
 11 12  1  6  0  0  0
 11 13  1  0  0  0  0
 11 28  1  0  0  0  0
 13 14  1  0  0  0  0
 14 15  2  0  0  0  0
 15 16  1  0  0  0  0
 15 26  1  0  0  0  0
 16 17  1  1  0  0  0
 16 18  1  0  0  0  0
 18 23  2  0  0  0  0
 18 19  1  0  0  0  0
 19 20  2  0  0  0  0
 19 38  1  0  0  0  0
 20 21  1  0  0  0  0
 20 39  1  0  0  0  0
 21 22  2  0  0  0  0
 21 24  1  0  0  0  0
 22 23  1  0  0  0  0
 22 40  1  0  0  0  0
 23 41  1  0  0  0  0
 24 25  1  0  0  0  0
 25 42  1  0  0  0  0
 25 43  1  0  0  0  0
 25 44  1  0  0  0  0
 26 27  3  0  0  0  0
 28 29  1  0  0  0  0
 28 45  1  0  0  0  0
 28 46  1  0  0  0  0
 29 30  2  0  0  0  0
 29 31  1  0  0  0  0
 32 47  1  0  0  0  0
 32 48  1  0  0  0  0
M  END
$$$$
ZINC36333834
 OpenBabel01252620473D

 26 27  0  0  0  0  0  0  0  0999 V2000
   -0.0159    1.3182    0.0093 C   0  0  0  0  0  0  0  0  0  0  0  0
    1.1692    2.0294    0.0018 C   0  0  0  0  0  0  0  0  0  0  0  0
    2.3263    1.3899   -0.0131 N   0  0  0  0  0  0  0  0  0  0  0  0
    2.3491    0.0633   -0.0204 C   0  0  0  0  0  0  0  0  0  0  0  0
    1.1526   -0.6499   -0.0123 C   0  0  0  0  0  0  0  0  0  0  0  0
    0.0021   -0.0041    0.0020 N   0  0  0  0  0  0  0  0  0  0  0  0
    3.5634   -0.6129   -0.0365 N   0  0  0  0  0  2  0  0  0  0  0  0
    4.9845    0.2373   -0.0466 S   0  0  0  0  0  0  0  0  0  0  0  0
    5.0374    0.9251   -1.2889 O   0  0  0  0  0  0  0  0  0  0  0  0
    5.0630    0.9119    1.2016 O   0  0  0  0  0  0  0  0  0  0  0  0
    6.2956   -0.9396   -0.0663 C   0  0  0  0  0  0  0  0  0  0  0  0
    7.1393   -1.0139   -1.1589 C   0  0  0  0  0  0  0  0  0  0  0  0
    8.1730   -1.9359   -1.1839 C   0  0  0  0  0  0  0  0  0  0  0  0
    8.3687   -2.7886   -0.1176 C   0  0  0  0  0  0  0  0  0  0  0  0
    7.5209   -2.7213    0.9918 C   0  0  0  0  0  0  0  0  0  0  0  0
    6.4818   -1.7831    1.0133 C   0  0  0  0  0  0  0  0  0  0  0  0
    5.6603   -1.7061    2.0831 F   0  0  0  0  0  0  0  0  0  0  0  0
    7.7231   -3.6291    2.1347 C   0  0  0  0  0  0  0  0  0  0  0  0
    8.6347   -4.4444    2.1143 O   0  0  0  0  0  0  0  0  0  0  0  0
    6.9793   -3.5674    3.1037 O   0  0  0  0  0  1  0  0  0  0  0  0
    9.3193   -2.0260   -2.6852 Br  0  0  0  0  0  0  0  0  0  0  0  0
   -0.9592    1.8438    0.0256 H   0  0  0  0  0  0  0  0  0  0  0  0
    1.1500    3.1092    0.0077 H   0  0  0  0  0  0  0  0  0  0  0  0
    1.1666   -1.7298   -0.0186 H   0  0  0  0  0  0  0  0  0  0  0  0
    6.9916   -0.3498   -1.9976 H   0  0  0  0  0  0  0  0  0  0  0  0
    9.1748   -3.5069   -0.1399 H   0  0  0  0  0  0  0  0  0  0  0  0
  1  6  2  0  0  0  0
  1  2  1  0  0  0  0
  1 22  1  0  0  0  0
  2  3  2  0  0  0  0
  2 23  1  0  0  0  0
  3  4  1  0  0  0  0
  4  5  2  0  0  0  0
  4  7  1  0  0  0  0
  5  6  1  0  0  0  0
  5 24  1  0  0  0  0
  7  8  1  0  0  0  0
  8  9  2  0  0  0  0
  8 10  2  0  0  0  0
  8 11  1  0  0  0  0
 11 16  2  0  0  0  0
 11 12  1  0  0  0  0
 12 13  2  0  0  0  0
 12 25  1  0  0  0  0
 13 14  1  0  0  0  0
 13 21  1  0  0  0  0
 14 15  2  0  0  0  0
 14 26  1  0  0  0  0
 15 16  1  0  0  0  0
 15 18  1  0  0  0  0
 16 17  1  0  0  0  0
 18 19  2  0  0  0  0
 18 20  1  0  0  0  0
M  END
$$$$
ZINC61181748
 OpenBabel01252620473D

 34 34  0  0  1  0  0  0  0  0999 V2000
    0.3064    1.2583   -0.1676 C   0  0  0  0  0  0  0  0  0  0  0  0
    0.0681   -0.2447   -0.0093 C   0  0  0  0  0  0  0  0  0  0  0  0
   -1.3723   -0.5112    0.0124 N   0  0  0  0  0  0  0  0  0  0  0  0
   -2.0691   -0.6463   -1.1758 C   0  0  0  0  0  0  0  0  0  0  0  0
   -2.7547    0.4570   -1.7136 C   0  0  0  0  0  0  0  0  0  0  0  0
   -3.4516    0.2959   -2.9162 C   0  0  0  0  0  0  0  0  0  0  0  0
   -3.4347   -0.9472   -3.5247 C   0  0  0  0  0  0  0  0  0  0  0  0
   -2.7371   -1.9851   -2.9343 C   0  0  0  0  0  0  0  0  0  0  0  0
   -2.0819   -1.8120   -1.8025 N   0  0  0  0  0  0  0  0  0  0  0  0
   -2.7208   -3.3376   -3.5988 C   0  0  0  0  0  0  0  0  0  0  0  0
   -2.7405    1.7220   -1.0428 C   0  0  0  0  0  0  0  0  0  0  0  0
   -2.7292    2.7256   -0.5107 N   0  0  0  0  0  0  0  0  0  0  0  0
   -2.0752   -0.6346    1.2919 C   0  0  2  0  0  0  0  0  0  0  0  0
   -3.1316   -0.8310    1.1086 H   0  0  0  0  0  0  0  0  0  0  0  0
   -1.9281    0.6672    2.0822 C   0  0  0  0  0  0  0  0  0  0  0  0
   -1.4735   -1.7895    2.0950 C   0  0  0  0  0  0  0  0  0  0  0  0
   -1.7269   -3.0884    1.3739 C   0  0  0  0  0  0  0  0  0  0  0  0
   -2.3327   -3.0901    0.3158 O   0  0  0  0  0  0  0  0  0  0  0  0
   -1.3263   -4.1374    1.8487 O   0  0  0  0  0  1  0  0  0  0  0  0
    1.3781    1.4565   -0.1838 H   0  0  0  0  0  0  0  0  0  0  0  0
   -0.1406    1.6007   -1.1009 H   0  0  0  0  0  0  0  0  0  0  0  0
   -0.1486    1.7884    0.6691 H   0  0  0  0  0  0  0  0  0  0  0  0
    0.5230   -0.7748   -0.8460 H   0  0  0  0  0  0  0  0  0  0  0  0
    0.5150   -0.5872    0.9240 H   0  0  0  0  0  0  0  0  0  0  0  0
   -3.9899    1.1212   -3.3586 H   0  0  0  0  0  0  0  0  0  0  0  0
   -3.9625   -1.1056   -4.4535 H   0  0  0  0  0  0  0  0  0  0  0  0
   -1.8746   -3.3959   -4.2833 H   0  0  0  0  0  0  0  0  0  0  0  0
   -2.6282   -4.1143   -2.8397 H   0  0  0  0  0  0  0  0  0  0  0  0
   -3.6478   -3.4808   -4.1539 H   0  0  0  0  0  0  0  0  0  0  0  0
   -0.8717    0.8637    2.2654 H   0  0  0  0  0  0  0  0  0  0  0  0
   -2.3568    1.4900    1.5100 H   0  0  0  0  0  0  0  0  0  0  0  0
   -2.4511    0.5754    3.0341 H   0  0  0  0  0  0  0  0  0  0  0  0
   -0.3996   -1.6369    2.2020 H   0  0  0  0  0  0  0  0  0  0  0  0
   -1.9355   -1.8255    3.0816 H   0  0  0  0  0  0  0  0  0  0  0  0
  1  2  1  0  0  0  0
  1 20  1  0  0  0  0
  1 21  1  0  0  0  0
  1 22  1  0  0  0  0
  2  3  1  0  0  0  0
  2 23  1  0  0  0  0
  2 24  1  0  0  0  0
  3  4  1  0  0  0  0
  3 13  1  0  0  0  0
  4  9  2  0  0  0  0
  4  5  1  0  0  0  0
  5  6  2  0  0  0  0
  5 11  1  0  0  0  0
  6  7  1  0  0  0  0
  6 25  1  0  0  0  0
  7  8  2  0  0  0  0
  7 26  1  0  0  0  0
  8  9  1  0  0  0  0
  8 10  1  0  0  0  0
 10 27  1  0  0  0  0
 10 28  1  0  0  0  0
 10 29  1  0  0  0  0
 11 12  3  0  0  0  0
 13 14  1  6  0  0  0
 13 15  1  0  0  0  0
 13 16  1  0  0  0  0
 15 30  1  0  0  0  0
 15 31  1  0  0  0  0
 15 32  1  0  0  0  0
 16 17  1  0  0  0  0
 16 33  1  0  0  0  0
 16 34  1  0  0  0  0
 17 18  2  0  0  0  0
 17 19  1  0  0  0  0
M  END
$$$$
ZINC31773030
 OpenBabel01252620473D

 47 49  0  0  1  0  0  0  0  0999 V2000
    0.3559    0.6390    0.2721 C   0  0  0  0  0  0  0  0  0  0  0  0
    0.5808    2.0014    0.3419 C   0  0  0  0  0  0  0  0  0  0  0  0
    1.8726    2.4914    0.3040 C   0  0  0  0  0  0  0  0  0  0  0  0
    2.9398    1.6193    0.1952 C   0  0  0  0  0  0  0  0  0  0  0  0
    2.7151    0.2574    0.1254 C   0  0  0  0  0  0  0  0  0  0  0  0
    1.4229   -0.2328    0.1638 C   0  0  0  0  0  0  0  0  0  0  0  0
    4.0752   -0.8540   -0.0132 S   0  0  0  0  0  0  0  0  0  0  0  0
    5.2294   -0.1374    0.4037 O   0  0  0  0  0  0  0  0  0  0  0  0
    3.6704   -2.0699    0.6009 O   0  0  0  0  0  0  0  0  0  0  0  0
    4.2777   -1.1817   -1.6237 N   0  0  0  0  0  2  0  0  0  0  0  0
    4.6232   -0.1564   -2.5070 C   0  0  0  0  0  0  0  0  0  0  0  0
    3.6759    0.3546   -3.3852 C   0  0  0  0  0  0  0  0  0  0  0  0
    4.0196    1.3717   -4.2539 C   0  0  0  0  0  0  0  0  0  0  0  0
    5.3079    1.8743   -4.2575 C   0  0  0  0  0  0  0  0  0  0  0  0
    6.2548    1.3642   -3.3882 C   0  0  0  0  0  0  0  0  0  0  0  0
    5.9164    0.3507   -2.5133 C   0  0  0  0  0  0  0  0  0  0  0  0
    5.7437    3.1677   -5.3717 S   0  0  0  0  0  0  0  0  0  0  0  0
    4.5379    3.8436   -5.7010 O   0  0  0  0  0  0  0  0  0  0  0  0
    6.8604    3.8362   -4.8012 O   0  0  0  0  0  0  0  0  0  0  0  0
    6.2814    2.4530   -6.7654 N   0  0  0  0  0  0  0  0  0  0  0  0
    2.1591    4.2277    0.3930 S   0  0  0  0  0  0  0  0  0  0  0  0
    3.4033    4.4241   -0.2647 O   0  0  0  0  0  0  0  0  0  0  0  0
    0.9703    4.8179   -0.1145 O   0  0  0  0  0  0  0  0  0  0  0  0
    2.3259    4.5824    2.1642 C   0  0  2  0  0  0  0  0  0  0  0  0
    1.4779    4.3605    2.8288 H   0  0  0  0  0  0  0  0  0  0  0  0
    2.5815    6.0858    2.3619 C   0  0  0  0  0  0  0  0  0  0  0  0
    3.0288    6.3115    3.8344 C   0  0  0  0  0  0  0  0  0  0  0  0
    4.1430    4.8637    4.0740 S   0  0  0  0  0  0  0  0  0  0  0  0
    5.4744    5.2479    3.7594 O   0  0  0  0  0  0  0  0  0  0  0  0
    3.8659    4.2708    5.3354 O   0  0  0  0  0  0  0  0  0  0  0  0
    3.5066    3.7659    2.7428 C   0  0  0  0  0  0  0  0  0  0  0  0
   -0.6535    0.2561    0.3017 H   0  0  0  0  0  0  0  0  0  0  0  0
   -0.2532    2.6830    0.4216 H   0  0  0  0  0  0  0  0  0  0  0  0
    3.9492    2.0023    0.1652 H   0  0  0  0  0  0  0  0  0  0  0  0
    1.2472   -1.2970    0.1089 H   0  0  0  0  0  0  0  0  0  0  0  0
    2.6707   -0.0404   -3.3859 H   0  0  0  0  0  0  0  0  0  0  0  0
    3.2825    1.7723   -4.9340 H   0  0  0  0  0  0  0  0  0  0  0  0
    7.2599    1.7592   -3.3934 H   0  0  0  0  0  0  0  0  0  0  0  0
    6.6563   -0.0469   -1.8344 H   0  0  0  0  0  0  0  0  0  0  0  0
    6.5647    3.2303   -7.4903 H   0  0  0  0  0  0  0  0  0  0  0  0
    5.4808    1.8297   -7.1903 H   0  0  0  0  0  0  0  0  0  0  0  0
    3.3709    6.4174    1.6714 H   0  0  0  0  0  0  0  0  0  0  0  0
    1.6566    6.6450    2.1572 H   0  0  0  0  0  0  0  0  0  0  0  0
    3.5399    7.2820    3.9177 H   0  0  0  0  0  0  0  0  0  0  0  0
    2.1462    6.3044    4.4909 H   0  0  0  0  0  0  0  0  0  0  0  0
    3.1344    2.8043    3.1261 H   0  0  0  0  0  0  0  0  0  0  0  0
    4.2484    3.5828    1.9515 H   0  0  0  0  0  0  0  0  0  0  0  0
  1  6  2  0  0  0  0
  1  2  1  0  0  0  0
  1 32  1  0  0  0  0
  2  3  2  0  0  0  0
  2 33  1  0  0  0  0
  3  4  1  0  0  0  0
  3 21  1  0  0  0  0
  4  5  2  0  0  0  0
  4 34  1  0  0  0  0
  5  6  1  0  0  0  0
  5  7  1  0  0  0  0
  6 35  1  0  0  0  0
  7  8  2  0  0  0  0
  7  9  2  0  0  0  0
  7 10  1  0  0  0  0
 10 11  1  0  0  0  0
 11 16  2  0  0  0  0
 11 12  1  0  0  0  0
 12 13  2  0  0  0  0
 12 36  1  0  0  0  0
 13 14  1  0  0  0  0
 13 37  1  0  0  0  0
 14 15  2  0  0  0  0
 14 17  1  0  0  0  0
 15 16  1  0  0  0  0
 15 38  1  0  0  0  0
 16 39  1  0  0  0  0
 17 18  2  0  0  0  0
 17 19  2  0  0  0  0
 17 20  1  0  0  0  0
 20 40  1  0  0  0  0
 20 41  1  0  0  0  0
 21 22  2  0  0  0  0
 21 23  2  0  0  0  0
 21 24  1  0  0  0  0
 24 25  1  1  0  0  0
 24 31  1  0  0  0  0
 24 26  1  0  0  0  0
 26 27  1  0  0  0  0
 26 42  1  0  0  0  0
 26 43  1  0  0  0  0
 27 28  1  0  0  0  0
 27 44  1  0  0  0  0
 27 45  1  0  0  0  0
 28 29  2  0  0  0  0
 28 30  2  0  0  0  0
 28 31  1  0  0  0  0
 31 46  1  0  0  0  0
 31 47  1  0  0  0  0
M  END
$$$$
ZINC16915548
 OpenBabel01252620473D

 47 49  0  0  0  0  0  0  0  0999 V2000
    3.7703    1.3119   -2.7613 C   0  0  0  0  0  0  0  0  0  0  0  0
    2.9068    2.0719   -1.9135 O   0  0  0  0  0  0  0  0  0  0  0  0
    2.0750    1.3741   -1.0945 C   0  0  0  0  0  0  0  0  0  0  0  0
    2.0913   -0.0064   -1.1084 C   0  0  0  0  0  0  0  0  0  0  0  0
    1.2329   -0.7215   -0.2639 C   0  0  0  0  0  0  0  0  0  0  0  0
    0.3629   -0.0318    0.5898 C   0  0  0  0  0  0  0  0  0  0  0  0
    0.3539    1.3454    0.5964 C   0  0  0  0  0  0  0  0  0  0  0  0
    1.2056    2.0533   -0.2415 C   0  0  0  0  0  0  0  0  0  0  0  0
    1.1915    3.4115   -0.2305 O   0  0  0  0  0  0  0  0  0  0  0  0
    0.2764    4.0435    0.6669 C   0  0  0  0  0  0  0  0  0  0  0  0
    0.4018    5.5400    0.5407 C   0  0  0  0  0  0  0  0  0  0  0  0
    1.1935    6.0164   -0.2379 O   0  0  0  0  0  0  0  0  0  0  0  0
   -0.3661    6.3436    1.2932 O   0  0  0  0  0  1  0  0  0  0  0  0
    1.2454   -2.1895   -0.2731 C   0  0  0  0  0  0  0  0  0  0  0  0
    0.0874   -2.8792   -0.1119 C   0  0  0  0  0  0  0  0  0  0  0  0
   -1.3106   -2.3903   -0.0711 C   0  0  0  0  0  0  0  0  0  0  0  0
   -1.5825   -1.2062   -0.1903 O   0  0  0  0  0  0  0  0  0  0  0  0
   -2.2423   -3.3021    0.1002 N   0  0  0  0  0  0  0  0  0  0  0  0
   -1.9614   -4.5887    0.2303 C   0  0  0  0  0  0  0  0  0  0  0  0
   -0.1805   -4.6343    0.1031 S   0  0  0  0  0  0  0  0  0  0  0  0
   -2.8291   -5.6356    0.4128 N   0  0  0  0  0  2  0  0  0  0  0  0
   -4.2019   -5.4154    0.3763 C   0  0  0  0  0  0  0  0  0  0  0  0
   -4.6997   -4.1204    0.3088 C   0  0  0  0  0  0  0  0  0  0  0  0
   -6.0620   -3.9047    0.2669 C   0  0  0  0  0  0  0  0  0  0  0  0
   -6.9434   -4.9737    0.3032 C   0  0  0  0  0  0  0  0  0  0  0  0
   -6.4688   -6.2650    0.3759 C   0  0  0  0  0  0  0  0  0  0  0  0
   -5.0917   -6.5004    0.4133 C   0  0  0  0  0  0  0  0  0  0  0  0
   -4.5771   -7.8790    0.4905 C   0  0  0  0  0  0  0  0  0  0  0  0
   -3.3857   -8.0761    0.6258 O   0  0  0  0  0  0  0  0  0  0  0  0
   -5.4277   -8.9212    0.4112 O   0  0  0  0  0  0  0  0  0  0  0  0
   -4.8506  -10.2510    0.4947 C   0  0  0  0  0  0  0  0  0  0  0  0
    4.3844    1.9952   -3.3663 H   0  0  0  0  0  0  0  0  0  0  0  0
    3.1659    0.6767   -3.4255 H   0  0  0  0  0  0  0  0  0  0  0  0
    4.4253    0.6788   -2.1447 H   0  0  0  0  0  0  0  0  0  0  0  0
    2.7640   -0.5334   -1.7689 H   0  0  0  0  0  0  0  0  0  0  0  0
   -0.3008   -0.5796    1.2423 H   0  0  0  0  0  0  0  0  0  0  0  0
   -0.3205    1.8763    1.2519 H   0  0  0  0  0  0  0  0  0  0  0  0
   -0.7509    3.7393    0.4175 H   0  0  0  0  0  0  0  0  0  0  0  0
    0.5077    3.7419    1.6991 H   0  0  0  0  0  0  0  0  0  0  0  0
    2.1932   -2.7305   -0.4106 H   0  0  0  0  0  0  0  0  0  0  0  0
   -4.0198   -3.2817    0.2846 H   0  0  0  0  0  0  0  0  0  0  0  0
   -6.4440   -2.8961    0.2095 H   0  0  0  0  0  0  0  0  0  0  0  0
   -8.0079   -4.7935    0.2740 H   0  0  0  0  0  0  0  0  0  0  0  0
   -7.1601   -7.0943    0.4043 H   0  0  0  0  0  0  0  0  0  0  0  0
   -5.6496  -11.0030    0.4169 H   0  0  0  0  0  0  0  0  0  0  0  0
   -4.3317  -10.3657    1.4578 H   0  0  0  0  0  0  0  0  0  0  0  0
   -4.1333  -10.3917   -0.3273 H   0  0  0  0  0  0  0  0  0  0  0  0
  1  2  1  0  0  0  0
  1 32  1  0  0  0  0
  1 33  1  0  0  0  0
  1 34  1  0  0  0  0
  2  3  1  0  0  0  0
  3  8  2  0  0  0  0
  3  4  1  0  0  0  0
  4  5  2  0  0  0  0
  4 35  1  0  0  0  0
  5  6  1  0  0  0  0
  5 14  1  0  0  0  0
  6  7  2  0  0  0  0
  6 36  1  0  0  0  0
  7  8  1  0  0  0  0
  7 37  1  0  0  0  0
  8  9  1  0  0  0  0
  9 10  1  0  0  0  0
 10 11  1  0  0  0  0
 10 38  1  0  0  0  0
 10 39  1  0  0  0  0
 11 12  2  0  0  0  0
 11 13  1  0  0  0  0
 14 15  2  0  0  0  0
 14 40  1  0  0  0  0
 15 20  1  0  0  0  0
 15 16  1  0  0  0  0
 16 17  2  0  0  0  0
 16 18  1  0  0  0  0
 18 19  2  0  0  0  0
 19 20  1  0  0  0  0
 19 21  1  0  0  0  0
 21 22  1  0  0  0  0
 22 27  2  0  0  0  0
 22 23  1  0  0  0  0
 23 24  2  0  0  0  0
 23 41  1  0  0  0  0
 24 25  1  0  0  0  0
 24 42  1  0  0  0  0
 25 26  2  0  0  0  0
 25 43  1  0  0  0  0
 26 27  1  0  0  0  0
 26 44  1  0  0  0  0
 27 28  1  0  0  0  0
 28 29  2  0  0  0  0
 28 30  1  0  0  0  0
 30 31  1  0  0  0  0
 31 45  1  0  0  0  0
 31 46  1  0  0  0  0
 31 47  1  0  0  0  0
M  END
$$$$
ZINC59398943
 OpenBabel01252620473D

 66 69  0  0  1  0  0  0  0  0999 V2000
   -3.3189    3.9392   -0.0950 C   0  0  0  0  0  0  0  0  0  0  0  0
   -2.8999    2.5696    0.3739 C   0  0  0  0  0  0  0  0  0  0  0  0
   -2.2478    1.6049   -0.4152 C   0  0  0  0  0  0  0  0  0  0  0  0
   -2.0312    0.5375    0.2981 N   0  0  0  0  0  4  0  0  0  0  0  0
   -1.3978   -0.6503   -0.1413 O   0  5  0  0  0  0  0  0  0  0  0  0
   -2.5469    0.7837    1.5967 O   0  0  0  0  0  0  0  0  0  0  0  0
   -3.0801    2.0983    1.5725 N   0  0  0  0  0  0  0  0  0  0  0  0
   -1.8606    1.7794   -1.8611 C   0  0  0  0  0  0  0  0  0  0  0  0
   -2.9318    1.3382   -2.6977 O   0  0  0  0  0  0  0  0  0  0  0  0
   -2.7434    1.4287   -4.0405 C   0  0  0  0  0  0  0  0  0  0  0  0
   -1.5497    1.9264   -4.5427 C   0  0  0  0  0  0  0  0  0  0  0  0
   -1.3605    2.0169   -5.9081 C   0  0  0  0  0  0  0  0  0  0  0  0
   -2.3596    1.6124   -6.7741 C   0  0  0  0  0  0  0  0  0  0  0  0
   -3.5503    1.1164   -6.2761 C   0  0  0  0  0  0  0  0  0  0  0  0
   -3.7421    1.0181   -4.9115 C   0  0  0  0  0  0  0  0  0  0  0  0
   -2.1506    1.7127   -8.2631 C   0  0  1  0  0  0  0  0  0  0  0  0
   -2.9180    0.6144   -8.9532 C   0  0  0  0  0  0  0  0  0  0  0  0
   -4.2250    0.8391   -9.3239 C   0  0  0  0  0  0  0  0  0  0  0  0
   -4.7420    1.9218   -9.0870 O   0  5  0  0  0  0  0  0  0  0  0  0
   -5.0258   -0.2312  -10.0178 C   0  0  0  0  0  0  0  0  0  0  0  0
   -4.5211   -1.6077   -9.5748 C   0  0  0  0  0  0  0  0  0  0  0  0
   -3.0253   -1.7111   -9.8871 C   0  0  0  0  0  0  0  0  0  0  0  0
   -2.2930   -0.5870   -9.2024 C   0  0  0  0  0  0  0  0  0  0  0  0
   -1.1296   -0.7448   -8.8599 O   0  0  0  0  0  0  0  0  0  0  0  0
   -5.2794   -2.6997  -10.3322 C   0  0  0  0  0  0  0  0  0  0  0  0
   -4.7434   -1.7752   -8.0704 C   0  0  0  0  0  0  0  0  0  0  0  0
   -2.6421    3.0514   -8.7503 C   0  0  0  0  0  0  0  0  0  0  0  0
   -2.4200    3.4120  -10.0606 C   0  0  0  0  0  0  0  0  0  0  0  0
   -1.8282    2.6441  -10.8060 O   0  5  0  0  0  0  0  0  0  0  0  0
   -2.8972    4.7398  -10.5877 C   0  0  0  0  0  0  0  0  0  0  0  0
   -2.9167    5.7599   -9.4455 C   0  0  0  0  0  0  0  0  0  0  0  0
   -3.8117    5.2286   -8.3219 C   0  0  0  0  0  0  0  0  0  0  0  0
   -3.3070    3.8815   -7.8757 C   0  0  0  0  0  0  0  0  0  0  0  0
   -3.4866    3.5220   -6.7206 O   0  0  0  0  0  0  0  0  0  0  0  0
   -3.4715    7.0910   -9.9566 C   0  0  0  0  0  0  0  0  0  0  0  0
   -1.4958    5.9636   -8.9160 C   0  0  0  0  0  0  0  0  0  0  0  0
   -2.5076    4.6463    0.0777 H   0  0  0  0  0  0  0  0  0  0  0  0
   -3.5496    3.9039   -1.1597 H   0  0  0  0  0  0  0  0  0  0  0  0
   -4.2026    4.2579    0.4579 H   0  0  0  0  0  0  0  0  0  0  0  0
   -1.6556    2.8317   -2.0579 H   0  0  0  0  0  0  0  0  0  0  0  0
   -0.9683    1.1899   -2.0720 H   0  0  0  0  0  0  0  0  0  0  0  0
   -0.7693    2.2432   -3.8667 H   0  0  0  0  0  0  0  0  0  0  0  0
   -0.4314    2.4043   -6.2996 H   0  0  0  0  0  0  0  0  0  0  0  0
   -4.3294    0.8014   -6.9545 H   0  0  0  0  0  0  0  0  0  0  0  0
   -4.6706    0.6266   -4.5231 H   0  0  0  0  0  0  0  0  0  0  0  0
   -1.0891    1.6113   -8.4887 H   0  0  0  0  0  0  0  0  0  0  0  0
   -6.0782   -0.1272   -9.7537 H   0  0  0  0  0  0  0  0  0  0  0  0
   -4.9092   -0.1309  -11.0969 H   0  0  0  0  0  0  0  0  0  0  0  0
   -2.6441   -2.6675   -9.5293 H   0  0  0  0  0  0  0  0  0  0  0  0
   -2.8724   -1.6376  -10.9638 H   0  0  0  0  0  0  0  0  0  0  0  0
   -5.1145   -2.5806  -11.4030 H   0  0  0  0  0  0  0  0  0  0  0  0
   -4.9190   -3.6785  -10.0157 H   0  0  0  0  0  0  0  0  0  0  0  0
   -6.3449   -2.6179  -10.1173 H   0  0  0  0  0  0  0  0  0  0  0  0
   -5.8072   -1.6906   -7.8486 H   0  0  0  0  0  0  0  0  0  0  0  0
   -4.3837   -2.7553   -7.7569 H   0  0  0  0  0  0  0  0  0  0  0  0
   -4.1975   -0.9992   -7.5338 H   0  0  0  0  0  0  0  0  0  0  0  0
   -2.2224    5.0839  -11.3715 H   0  0  0  0  0  0  0  0  0  0  0  0
   -3.9024    4.6298  -10.9946 H   0  0  0  0  0  0  0  0  0  0  0  0
   -3.7922    5.9231   -7.4820 H   0  0  0  0  0  0  0  0  0  0  0  0
   -4.8335    5.1275   -8.6877 H   0  0  0  0  0  0  0  0  0  0  0  0
   -4.4856    6.9433  -10.3280 H   0  0  0  0  0  0  0  0  0  0  0  0
   -3.4847    7.8157   -9.1426 H   0  0  0  0  0  0  0  0  0  0  0  0
   -2.8395    7.4623  -10.7634 H   0  0  0  0  0  0  0  0  0  0  0  0
   -0.8578    6.3314   -9.7196 H   0  0  0  0  0  0  0  0  0  0  0  0
   -1.5115    6.6898   -8.1033 H   0  0  0  0  0  0  0  0  0  0  0  0
   -1.1057    5.0147   -8.5478 H   0  0  0  0  0  0  0  0  0  0  0  0
  1  2  1  0  0  0  0
  1 37  1  0  0  0  0
  1 38  1  0  0  0  0
  1 39  1  0  0  0  0
  2  7  2  0  0  0  0
  2  3  1  0  0  0  0
  3  4  2  0  0  0  0
  3  8  1  0  0  0  0
  4  5  1  0  0  0  0
  4  6  1  0  0  0  0
  6  7  1  0  0  0  0
  8  9  1  0  0  0  0
  8 40  1  0  0  0  0
  8 41  1  0  0  0  0
  9 10  1  0  0  0  0
 10 15  2  0  0  0  0
 10 11  1  0  0  0  0
 11 12  2  0  0  0  0
 11 42  1  0  0  0  0
 12 13  1  0  0  0  0
 12 43  1  0  0  0  0
 13 14  2  0  0  0  0
 13 16  1  0  0  0  0
 14 15  1  0  0  0  0
 14 44  1  0  0  0  0
 15 45  1  0  0  0  0
 16 17  1  0  0  0  0
 16 27  1  0  0  0  0
 16 46  1  6  0  0  0
 17 23  1  0  0  0  0
 17 18  2  0  0  0  0
 18 19  1  0  0  0  0
 18 20  1  0  0  0  0
 20 21  1  0  0  0  0
 20 47  1  0  0  0  0
 20 48  1  0  0  0  0
 21 22  1  0  0  0  0
 21 25  1  0  0  0  0
 21 26  1  0  0  0  0
 22 23  1  0  0  0  0
 22 49  1  0  0  0  0
 22 50  1  0  0  0  0
 23 24  2  0  0  0  0
 25 51  1  0  0  0  0
 25 52  1  0  0  0  0
 25 53  1  0  0  0  0
 26 54  1  0  0  0  0
 26 55  1  0  0  0  0
 26 56  1  0  0  0  0
 27 33  1  0  0  0  0
 27 28  2  0  0  0  0
 28 29  1  0  0  0  0
 28 30  1  0  0  0  0
 30 31  1  0  0  0  0
 30 57  1  0  0  0  0
 30 58  1  0  0  0  0
 31 32  1  0  0  0  0
 31 35  1  0  0  0  0
 31 36  1  0  0  0  0
 32 33  1  0  0  0  0
 32 59  1  0  0  0  0
 32 60  1  0  0  0  0
 33 34  2  0  0  0  0
 35 61  1  0  0  0  0
 35 62  1  0  0  0  0
 35 63  1  0  0  0  0
 36 64  1  0  0  0  0
 36 65  1  0  0  0  0
 36 66  1  0  0  0  0
M  CHG  3   5  -1  19  -1  29  -1
M  END
$$$$
ZINC64589881
 OpenBabel01252620473D

 58 59  0  0  0  0  0  0  0  0999 V2000
   -0.4357    0.9082   -0.4805 C   0  0  0  0  0  0  0  0  0  0  0  0
   -0.3421   -0.6189   -0.4909 C   0  0  0  0  0  0  0  0  0  0  0  0
    0.3463   -1.0964    0.7894 C   0  0  0  0  0  0  0  0  0  0  0  0
   -1.7489   -1.2156   -0.5665 C   0  0  0  0  0  0  0  0  0  0  0  0
    0.4355   -1.0526   -1.6543 N   0  0  0  0  0  0  0  0  0  0  0  0
    1.7125   -0.6470   -1.8005 C   0  0  0  0  0  0  0  0  0  0  0  0
    2.2179    0.0769   -0.9690 O   0  0  0  0  0  0  0  0  0  0  0  0
    2.5124   -1.0931   -2.9973 C   0  0  0  0  0  0  0  0  0  0  0  0
    3.8631   -0.5202   -2.9246 N   0  0  0  0  0  0  0  0  0  0  0  0
    3.8217    0.9430   -3.0486 C   0  0  0  0  0  0  0  0  0  0  0  0
    5.2195    1.5142   -2.7878 C   0  0  0  0  0  0  0  0  0  0  0  0
    6.1736    0.8410   -3.6821 N   0  0  0  0  0  0  0  0  0  0  0  0
    6.1786   -0.6294   -3.7144 C   0  0  0  0  0  0  0  0  0  0  0  0
    4.7430   -1.1162   -3.9388 C   0  0  0  0  0  0  0  0  0  0  0  0
    7.0536    1.5799   -4.4806 C   0  0  0  0  0  0  0  0  0  0  0  0
    6.9585    2.9681   -4.5167 C   0  0  0  0  0  0  0  0  0  0  0  0
    7.8210    3.7061   -5.3004 C   0  0  0  0  0  0  0  0  0  0  0  0
    8.7921    3.0682   -6.0605 C   0  0  0  0  0  0  0  0  0  0  0  0
    8.8946    1.6685   -6.0290 C   0  0  0  0  0  0  0  0  0  0  0  0
    8.0193    0.9288   -5.2274 C   0  0  0  0  0  0  0  0  0  0  0  0
    9.9205    0.9836   -6.8315 C   0  0  0  0  0  0  0  0  0  0  0  0
    9.9439   -0.2387   -6.8802 O   0  0  0  0  0  0  0  0  0  0  0  0
   10.7500    1.6364   -7.4501 O   0  0  0  0  0  1  0  0  0  0  0  0
    9.6621    3.8151   -6.8525 N   0  0  0  0  0  0  0  0  0  0  0  0
   10.0902    5.0214   -6.4304 C   0  0  0  0  0  0  0  0  0  0  0  0
    9.6576    5.4918   -5.3997 O   0  0  0  0  0  0  0  0  0  0  0  0
   11.1063    5.7858   -7.2394 C   0  0  0  0  0  0  0  0  0  0  0  0
   11.3970    7.0252   -6.5904 O   0  0  0  0  0  0  0  0  0  0  0  0
   12.3550    7.8313   -7.2793 C   0  0  0  0  0  0  0  0  0  0  0  0
    0.5665    1.3333   -0.4266 H   0  0  0  0  0  0  0  0  0  0  0  0
   -0.9261    1.2483   -1.3926 H   0  0  0  0  0  0  0  0  0  0  0  0
   -1.0143    1.2308    0.3851 H   0  0  0  0  0  0  0  0  0  0  0  0
   -0.2323   -0.7737    1.6550 H   0  0  0  0  0  0  0  0  0  0  0  0
    0.4130   -2.1843    0.7820 H   0  0  0  0  0  0  0  0  0  0  0  0
    1.3485   -0.6713    0.8433 H   0  0  0  0  0  0  0  0  0  0  0  0
   -2.2393   -0.8755   -1.4786 H   0  0  0  0  0  0  0  0  0  0  0  0
   -1.6822   -2.3036   -0.5739 H   0  0  0  0  0  0  0  0  0  0  0  0
   -2.3274   -0.8930    0.2991 H   0  0  0  0  0  0  0  0  0  0  0  0
    0.0313   -1.6316   -2.3193 H   0  0  0  0  0  0  0  0  0  0  0  0
    2.5791   -2.1811   -3.0047 H   0  0  0  0  0  0  0  0  0  0  0  0
    2.0220   -0.7530   -3.9093 H   0  0  0  0  0  0  0  0  0  0  0  0
    3.4999    1.2138   -4.0542 H   0  0  0  0  0  0  0  0  0  0  0  0
    3.1206    1.3500   -2.3200 H   0  0  0  0  0  0  0  0  0  0  0  0
    5.2210    2.5852   -2.9902 H   0  0  0  0  0  0  0  0  0  0  0  0
    5.5008    1.3343   -1.7502 H   0  0  0  0  0  0  0  0  0  0  0  0
    6.8142   -0.9756   -4.5295 H   0  0  0  0  0  0  0  0  0  0  0  0
    6.5520   -1.0153   -2.7659 H   0  0  0  0  0  0  0  0  0  0  0  0
    4.7101   -2.2026   -3.8557 H   0  0  0  0  0  0  0  0  0  0  0  0
    4.4084   -0.8167   -4.9320 H   0  0  0  0  0  0  0  0  0  0  0  0
    6.2050    3.4702   -3.9280 H   0  0  0  0  0  0  0  0  0  0  0  0
    7.7404    4.7829   -5.3231 H   0  0  0  0  0  0  0  0  0  0  0  0
    8.0941   -0.1481   -5.1949 H   0  0  0  0  0  0  0  0  0  0  0  0
    9.9597    3.4668   -7.7075 H   0  0  0  0  0  0  0  0  0  0  0  0
   12.0198    5.1973   -7.3248 H   0  0  0  0  0  0  0  0  0  0  0  0
   10.7059    5.9816   -8.2341 H   0  0  0  0  0  0  0  0  0  0  0  0
   13.2944    7.2853   -7.3655 H   0  0  0  0  0  0  0  0  0  0  0  0
   11.9805    8.0696   -8.2748 H   0  0  0  0  0  0  0  0  0  0  0  0
   12.5207    8.7539   -6.7230 H   0  0  0  0  0  0  0  0  0  0  0  0
  1  2  1  0  0  0  0
  1 30  1  0  0  0  0
  1 31  1  0  0  0  0
  1 32  1  0  0  0  0
  2  3  1  0  0  0  0
  2  4  1  0  0  0  0
  2  5  1  0  0  0  0
  3 33  1  0  0  0  0
  3 34  1  0  0  0  0
  3 35  1  0  0  0  0
  4 36  1  0  0  0  0
  4 37  1  0  0  0  0
  4 38  1  0  0  0  0
  5  6  1  0  0  0  0
  5 39  1  0  0  0  0
  6  7  2  0  0  0  0
  6  8  1  0  0  0  0
  8  9  1  0  0  0  0
  8 40  1  0  0  0  0
  8 41  1  0  0  0  0
  9 14  1  0  0  0  0
  9 10  1  0  0  0  0
 10 11  1  0  0  0  0
 10 42  1  0  0  0  0
 10 43  1  0  0  0  0
 11 12  1  0  0  0  0
 11 44  1  0  0  0  0
 11 45  1  0  0  0  0
 12 13  1  0  0  0  0
 12 15  1  0  0  0  0
 13 14  1  0  0  0  0
 13 46  1  0  0  0  0
 13 47  1  0  0  0  0
 14 48  1  0  0  0  0
 14 49  1  0  0  0  0
 15 20  2  0  0  0  0
 15 16  1  0  0  0  0
 16 17  2  0  0  0  0
 16 50  1  0  0  0  0
 17 18  1  0  0  0  0
 17 51  1  0  0  0  0
 18 19  2  0  0  0  0
 18 24  1  0  0  0  0
 19 20  1  0  0  0  0
 19 21  1  0  0  0  0
 20 52  1  0  0  0  0
 21 22  2  0  0  0  0
 21 23  1  0  0  0  0
 24 25  1  0  0  0  0
 24 53  1  0  0  0  0
 25 26  2  0  0  0  0
 25 27  1  0  0  0  0
 27 28  1  0  0  0  0
 27 54  1  0  0  0  0
 27 55  1  0  0  0  0
 28 29  1  0  0  0  0
 29 56  1  0  0  0  0
 29 57  1  0  0  0  0
 29 58  1  0  0  0  0
M  END
$$$$
ZINC05897739
 OpenBabel01252620473D

 37 39  0  0  0  0  0  0  0  0999 V2000
   -4.6630    4.6083    1.0888 C   0  0  0  0  0  0  0  0  0  0  0  0
   -5.2202    5.7146    0.4679 C   0  0  0  0  0  0  0  0  0  0  0  0
   -4.4245    6.5956   -0.2390 C   0  0  0  0  0  0  0  0  0  0  0  0
   -3.0591    6.3786   -0.3314 C   0  0  0  0  0  0  0  0  0  0  0  0
   -2.4888    5.2591    0.2964 C   0  0  0  0  0  0  0  0  0  0  0  0
   -3.3084    4.3720    1.0043 C   0  0  0  0  0  0  0  0  0  0  0  0
   -1.0438    5.0175    0.2058 C   0  0  0  0  0  0  0  0  0  0  0  0
   -0.5426    3.7872    0.4845 C   0  0  0  0  0  0  0  0  0  0  0  0
    0.8603    3.3564    0.6422 C   0  0  0  0  0  0  0  0  0  0  0  0
    1.7859    4.1383    0.5268 O   0  0  0  0  0  0  0  0  0  0  0  0
    1.0609    2.0782    0.9156 N   0  0  0  0  0  0  0  0  0  0  0  0
    0.0324    1.2152    1.0431 C   0  0  0  0  0  0  0  0  0  0  0  0
    0.0711    0.0250    1.2904 O   0  0  0  0  0  0  0  0  0  0  0  0
   -1.3997    2.2416    0.7530 S   0  0  0  0  0  0  0  0  0  0  0  0
    2.3725    1.6095    1.0762 C   0  0  0  0  0  0  0  0  0  0  0  0
    3.2251    1.5412   -0.0172 C   0  0  0  0  0  0  0  0  0  0  0  0
    4.5187    1.0849    0.1446 C   0  0  0  0  0  0  0  0  0  0  0  0
    4.9613    0.6848    1.3932 C   0  0  0  0  0  0  0  0  0  0  0  0
    4.1113    0.7462    2.4835 C   0  0  0  0  0  0  0  0  0  0  0  0
    2.8188    1.2075    2.3278 C   0  0  0  0  0  0  0  0  0  0  0  0
    6.5856    0.1056    1.5923 Cl  0  0  0  0  0  0  0  0  0  0  0  0
   -2.2767    7.2434   -1.0256 O   0  0  0  0  0  0  0  0  0  0  0  0
   -2.9272    8.3591   -1.6372 C   0  0  0  0  0  0  0  0  0  0  0  0
   -1.9070    9.2022   -2.3579 C   0  0  0  0  0  0  0  0  0  0  0  0
   -0.7424    8.8806   -2.3488 O   0  0  0  0  0  0  0  0  0  0  0  0
   -5.2942    3.9258    1.6385 H   0  0  0  0  0  0  0  0  0  0  0  0
   -6.2838    5.8892    0.5366 H   0  0  0  0  0  0  0  0  0  0  0  0
   -4.8675    7.4550   -0.7201 H   0  0  0  0  0  0  0  0  0  0  0  0
   -2.8790    3.5064    1.4867 H   0  0  0  0  0  0  0  0  0  0  0  0
   -0.3794    5.8186   -0.0826 H   0  0  0  0  0  0  0  0  0  0  0  0
    2.8788    1.8491   -0.9927 H   0  0  0  0  0  0  0  0  0  0  0  0
    5.1840    1.0365   -0.7047 H   0  0  0  0  0  0  0  0  0  0  0  0
    4.4589    0.4334    3.4570 H   0  0  0  0  0  0  0  0  0  0  0  0
    2.1558    1.2552    3.1790 H   0  0  0  0  0  0  0  0  0  0  0  0
   -3.6707    8.0007   -2.3492 H   0  0  0  0  0  0  0  0  0  0  0  0
   -3.4178    8.9588   -0.8705 H   0  0  0  0  0  0  0  0  0  0  0  0
   -2.2921   10.3104   -3.0101 O   0  0  0  0  0  1  0  0  0  0  0  0
  1  6  2  0  0  0  0
  1  2  1  0  0  0  0
  1 26  1  0  0  0  0
  2  3  2  0  0  0  0
  2 27  1  0  0  0  0
  3  4  1  0  0  0  0
  3 28  1  0  0  0  0
  4  5  2  0  0  0  0
  4 22  1  0  0  0  0
  5  6  1  0  0  0  0
  5  7  1  0  0  0  0
  6 29  1  0  0  0  0
  7  8  2  0  0  0  0
  7 30  1  0  0  0  0
  8 14  1  0  0  0  0
  8  9  1  0  0  0  0
  9 10  2  0  0  0  0
  9 11  1  0  0  0  0
 11 12  1  0  0  0  0
 11 15  1  0  0  0  0
 12 13  2  0  0  0  0
 12 14  1  0  0  0  0
 15 20  2  0  0  0  0
 15 16  1  0  0  0  0
 16 17  2  0  0  0  0
 16 31  1  0  0  0  0
 17 18  1  0  0  0  0
 17 32  1  0  0  0  0
 18 19  2  0  0  0  0
 18 21  1  0  0  0  0
 19 20  1  0  0  0  0
 19 33  1  0  0  0  0
 20 34  1  0  0  0  0
 22 23  1  0  0  0  0
 23 24  1  0  0  0  0
 23 35  1  0  0  0  0
 23 36  1  0  0  0  0
 24 25  2  0  0  0  0
 24 37  1  0  0  0  0
M  END
$$$$
ZINC66506034
 OpenBabel01252620473D

 50 51  0  0  0  0  0  0  0  0999 V2000
   -0.0902    1.7719   -0.7480 C   0  0  0  0  0  0  0  0  0  0  0  0
   -0.0069    0.2451   -0.8022 C   0  0  0  0  0  0  0  0  0  0  0  0
    0.9238   -0.2545    0.3046 C   0  0  0  0  0  0  0  0  0  0  0  0
   -1.3103   -0.3100   -0.6152 O   0  0  0  0  0  0  0  0  0  0  0  0
   -1.5106   -1.5597   -1.2787 C   0  0  0  0  0  0  0  0  0  0  0  0
   -2.9323   -2.0574   -1.0106 C   0  0  0  0  0  0  0  0  0  0  0  0
   -3.1467   -3.3954   -1.7210 C   0  0  0  0  0  0  0  0  0  0  0  0
   -4.5080   -3.8720   -1.4643 N   0  0  0  0  0  0  0  0  0  0  0  0
   -4.9287   -5.0524   -1.9991 C   0  0  0  0  0  0  0  0  0  0  0  0
   -4.0930   -5.7812   -2.7638 O   0  5  0  0  0  0  0  0  0  0  0  0
   -6.2233   -5.5056   -1.7550 C   0  0  0  0  0  0  0  0  0  0  0  0
   -7.1118   -4.7309   -0.9419 C   0  0  0  0  0  0  0  0  0  0  0  0
   -7.8166   -4.1162   -0.2970 N   0  0  0  0  0  0  0  0  0  0  0  0
   -6.6751   -6.7732   -2.3293 C   0  0  0  0  0  0  0  0  0  0  0  0
   -7.6941   -6.7876   -3.2189 O   0  5  0  0  0  0  0  0  0  0  0  0
   -6.0624   -7.9528   -1.9638 C   0  0  0  0  0  0  0  0  0  0  0  0
   -6.3215   -9.3187   -2.5639 C   0  0  0  0  0  0  0  0  0  0  0  0
   -5.3719  -10.2468   -1.7840 C   0  0  0  0  0  0  0  0  0  0  0  0
   -4.6738   -9.3698   -0.8376 N   0  0  0  0  0  0  0  0  0  0  0  0
   -5.0847   -8.1041   -0.9762 C   0  0  0  0  0  0  0  0  0  0  0  0
   -4.6538   -7.1794   -0.3083 O   0  0  0  0  0  0  0  0  0  0  0  0
   -3.7074   -9.7973    0.0799 C   0  0  0  0  0  0  0  0  0  0  0  0
   -3.1977   -8.9088    1.0176 C   0  0  0  0  0  0  0  0  0  0  0  0
   -2.2444   -9.3328    1.9225 C   0  0  0  0  0  0  0  0  0  0  0  0
   -1.7963  -10.6428    1.8948 C   0  0  0  0  0  0  0  0  0  0  0  0
   -2.3028  -11.5303    0.9603 C   0  0  0  0  0  0  0  0  0  0  0  0
   -3.2608  -11.1120    0.0576 C   0  0  0  0  0  0  0  0  0  0  0  0
   -0.8634  -11.0554    2.7806 F   0  0  0  0  0  0  0  0  0  0  0  0
    0.9040    2.1953   -0.8907 H   0  0  0  0  0  0  0  0  0  0  0  0
   -0.7533    2.1278   -1.5365 H   0  0  0  0  0  0  0  0  0  0  0  0
   -0.4807    2.0802    0.2218 H   0  0  0  0  0  0  0  0  0  0  0  0
    0.3836   -0.0633   -1.7720 H   0  0  0  0  0  0  0  0  0  0  0  0
    1.9180    0.1689    0.1619 H   0  0  0  0  0  0  0  0  0  0  0  0
    0.5333    0.0539    1.2744 H   0  0  0  0  0  0  0  0  0  0  0  0
    0.9832   -1.3422    0.2660 H   0  0  0  0  0  0  0  0  0  0  0  0
   -1.3677   -1.4286   -2.3513 H   0  0  0  0  0  0  0  0  0  0  0  0
   -0.7933   -2.2895   -0.9031 H   0  0  0  0  0  0  0  0  0  0  0  0
   -3.0751   -2.1886    0.0620 H   0  0  0  0  0  0  0  0  0  0  0  0
   -3.6496   -1.3277   -1.3861 H   0  0  0  0  0  0  0  0  0  0  0  0
   -3.0038   -3.2643   -2.7936 H   0  0  0  0  0  0  0  0  0  0  0  0
   -2.4294   -4.1252   -1.3454 H   0  0  0  0  0  0  0  0  0  0  0  0
   -5.1098   -3.3472   -0.9135 H   0  0  0  0  0  0  0  0  0  0  0  0
   -7.3590   -9.6146   -2.4090 H   0  0  0  0  0  0  0  0  0  0  0  0
   -6.0752   -9.3235   -3.6257 H   0  0  0  0  0  0  0  0  0  0  0  0
   -5.9408  -11.0062   -1.2475 H   0  0  0  0  0  0  0  0  0  0  0  0
   -4.6590  -10.7156   -2.4623 H   0  0  0  0  0  0  0  0  0  0  0  0
   -3.5464   -7.8868    1.0391 H   0  0  0  0  0  0  0  0  0  0  0  0
   -1.8478   -8.6421    2.6519 H   0  0  0  0  0  0  0  0  0  0  0  0
   -1.9515  -12.5513    0.9400 H   0  0  0  0  0  0  0  0  0  0  0  0
   -3.6591  -11.8058   -0.6679 H   0  0  0  0  0  0  0  0  0  0  0  0
  1  2  1  0  0  0  0
  1 29  1  0  0  0  0
  1 30  1  0  0  0  0
  1 31  1  0  0  0  0
  2  3  1  0  0  0  0
  2  4  1  0  0  0  0
  2 32  1  0  0  0  0
  3 33  1  0  0  0  0
  3 34  1  0  0  0  0
  3 35  1  0  0  0  0
  4  5  1  0  0  0  0
  5  6  1  0  0  0  0
  5 36  1  0  0  0  0
  5 37  1  0  0  0  0
  6  7  1  0  0  0  0
  6 38  1  0  0  0  0
  6 39  1  0  0  0  0
  7  8  1  0  0  0  0
  7 40  1  0  0  0  0
  7 41  1  0  0  0  0
  8  9  1  0  0  0  0
  8 42  1  0  0  0  0
  9 10  1  0  0  0  0
  9 11  2  0  0  0  0
 11 12  1  0  0  0  0
 11 14  1  0  0  0  0
 12 13  3  0  0  0  0
 14 15  1  0  0  0  0
 14 16  2  0  0  0  0
 16 20  1  0  0  0  0
 16 17  1  0  0  0  0
 17 18  1  0  0  0  0
 17 43  1  0  0  0  0
 17 44  1  0  0  0  0
 18 19  1  0  0  0  0
 18 45  1  0  0  0  0
 18 46  1  0  0  0  0
 19 20  1  0  0  0  0
 19 22  1  0  0  0  0
 20 21  2  0  0  0  0
 22 27  2  0  0  0  0
 22 23  1  0  0  0  0
 23 24  2  0  0  0  0
 23 47  1  0  0  0  0
 24 25  1  0  0  0  0
 24 48  1  0  0  0  0
 25 26  2  0  0  0  0
 25 28  1  0  0  0  0
 26 27  1  0  0  0  0
 26 49  1  0  0  0  0
 27 50  1  0  0  0  0
M  CHG  2  10  -1  15  -1
M  END
$$$$
ZINC61807307
 OpenBabel01252620473D

 33 33  0  0  0  0  0  0  0  0999 V2000
   -0.0167    1.3792    0.0096 C   0  0  0  0  0  0  0  0  0  0  0  0
    1.1771    2.0889    0.0020 C   0  0  0  0  0  0  0  0  0  0  0  0
    2.3874    1.4078   -0.0132 C   0  0  0  0  0  0  0  0  0  0  0  0
    2.4015    0.0245   -0.0207 C   0  0  0  0  0  0  0  0  0  0  0  0
    1.2100   -0.6811   -0.0136 C   0  0  0  0  0  0  0  0  0  0  0  0
    0.0021   -0.0041    0.0020 C   0  0  0  0  0  0  0  0  0  0  0  0
   -1.1589   -0.6949    0.0098 F   0  0  0  0  0  0  0  0  0  0  0  0
    1.2308   -2.4429   -0.0239 S   0  0  0  0  0  0  0  0  0  0  0  0
   -0.0147   -2.8607   -0.5654 O   0  0  0  0  0  0  0  0  0  0  0  0
    2.4757   -2.8311   -0.5886 O   0  0  0  0  0  0  0  0  0  0  0  0
    1.2515   -2.9415    1.5552 N   0  0  0  0  0  0  0  0  0  0  0  0
   -0.0080   -3.1772    2.2654 C   0  0  0  0  0  0  0  0  0  0  0  0
   -0.3645   -4.6392    2.1843 C   0  0  0  0  0  0  0  0  0  0  0  0
    0.3619   -5.4085    1.5916 O   0  0  0  0  0  0  0  0  0  0  0  0
   -1.4906   -5.0917    2.7704 N   0  0  0  0  0  0  0  0  0  0  0  0
    2.5292   -3.1470    2.2418 C   0  0  0  0  0  0  0  0  0  0  0  0
    2.8946   -1.9008    3.0064 C   0  0  0  0  0  0  0  0  0  0  0  0
    2.1601   -0.9361    2.9804 O   0  0  0  0  0  0  0  0  0  0  0  0
    4.0376   -1.8584    3.7192 N   0  0  0  0  0  0  0  0  0  0  0  0
    3.5785   -0.6385   -0.0355 F   0  0  0  0  0  0  0  0  0  0  0  0
    1.1606    3.4854    0.0092 N   0  0  0  0  0  0  0  0  0  0  0  0
   -0.9589    1.9067    0.0260 H   0  0  0  0  0  0  0  0  0  0  0  0
    3.3169    1.9577   -0.0195 H   0  0  0  0  0  0  0  0  0  0  0  0
    0.1045   -2.8881    3.3103 H   0  0  0  0  0  0  0  0  0  0  0  0
   -0.7998   -2.5842    1.8076 H   0  0  0  0  0  0  0  0  0  0  0  0
   -2.0716   -4.4764    3.2445 H   0  0  0  0  0  0  0  0  0  0  0  0
   -1.7201   -6.0327    2.7182 H   0  0  0  0  0  0  0  0  0  0  0  0
    2.4393   -3.9845    2.9336 H   0  0  0  0  0  0  0  0  0  0  0  0
    3.3053   -3.3637    1.5079 H   0  0  0  0  0  0  0  0  0  0  0  0
    4.6251   -2.6300    3.7401 H   0  0  0  0  0  0  0  0  0  0  0  0
    4.2729   -1.0563    4.2114 H   0  0  0  0  0  0  0  0  0  0  0  0
    0.3149    3.9603    0.0195 H   0  0  0  0  0  0  0  0  0  0  0  0
    1.9948    3.9803    0.0039 H   0  0  0  0  0  0  0  0  0  0  0  0
  1  6  2  0  0  0  0
  1  2  1  0  0  0  0
  1 22  1  0  0  0  0
  2  3  2  0  0  0  0
  2 21  1  0  0  0  0
  3  4  1  0  0  0  0
  3 23  1  0  0  0  0
  4  5  2  0  0  0  0
  4 20  1  0  0  0  0
  5  6  1  0  0  0  0
  5  8  1  0  0  0  0
  6  7  1  0  0  0  0
  8  9  2  0  0  0  0
  8 10  2  0  0  0  0
  8 11  1  0  0  0  0
 11 12  1  0  0  0  0
 11 16  1  0  0  0  0
 12 13  1  0  0  0  0
 12 24  1  0  0  0  0
 12 25  1  0  0  0  0
 13 14  2  0  0  0  0
 13 15  1  0  0  0  0
 15 26  1  0  0  0  0
 15 27  1  0  0  0  0
 16 17  1  0  0  0  0
 16 28  1  0  0  0  0
 16 29  1  0  0  0  0
 17 18  2  0  0  0  0
 17 19  1  0  0  0  0
 19 30  1  0  0  0  0
 19 31  1  0  0  0  0
 21 32  1  0  0  0  0
 21 33  1  0  0  0  0
M  END
$$$$
ZINC64100831
 OpenBabel01252620473D

 46 47  0  0  0  0  0  0  0  0999 V2000
   -1.1641    1.4631    0.7941 C   0  0  0  0  0  0  0  0  0  0  0  0
   -0.9085   -0.0366    0.6313 C   0  0  0  0  0  0  0  0  0  0  0  0
   -0.1585   -0.5621    1.8570 C   0  0  0  0  0  0  0  0  0  0  0  0
    0.0971   -2.0618    1.6942 C   0  0  0  0  0  0  0  0  0  0  0  0
    0.8472   -2.5873    2.9198 C   0  0  0  0  0  0  0  0  0  0  0  0
    1.1027   -4.0870    2.7571 C   0  0  0  0  0  0  0  0  0  0  0  0
    1.8209   -4.5902    3.9306 N   0  0  0  0  0  0  0  0  0  0  0  0
    2.1592   -5.9068    4.0090 C   0  0  0  0  0  0  0  0  0  0  0  0
    1.8337   -6.7463    3.0077 O   0  5  0  0  0  0  0  0  0  0  0  0
    2.8424   -6.3854    5.1254 C   0  0  0  0  0  0  0  0  0  0  0  0
    3.1886   -5.4926    6.1901 C   0  0  0  0  0  0  0  0  0  0  0  0
    3.4633   -4.7844    7.0348 N   0  0  0  0  0  0  0  0  0  0  0  0
    3.2063   -7.8013    5.2096 C   0  0  0  0  0  0  0  0  0  0  0  0
    2.8423   -8.5769    4.3423 O   0  0  0  0  0  0  0  0  0  0  0  0
    4.0102   -8.2875    6.3398 C   0  0  0  0  0  0  0  0  0  0  0  0
    3.4574   -9.1730    7.2709 C   0  0  0  0  0  0  0  0  0  0  0  0
    4.2365   -9.6164    8.3265 C   0  0  0  0  0  0  0  0  0  0  0  0
    5.5494   -9.1798    8.4481 C   0  0  0  0  0  0  0  0  0  0  0  0
    6.0849   -8.3132    7.5338 N   0  0  0  0  0  0  0  0  0  0  0  0
    7.0036   -8.0187    7.6342 H   0  0  0  0  0  0  0  0  0  0  0  0
    5.3542   -7.8688    6.4940 C   0  0  0  0  0  0  0  0  0  0  0  0
    5.8489   -7.1010    5.6867 O   0  0  0  0  0  0  0  0  0  0  0  0
    6.3691   -9.6511    9.5662 C   0  0  0  0  0  0  0  0  0  0  0  0
    7.6859   -9.3411    9.8775 C   0  0  0  0  0  0  0  0  0  0  0  0
    8.1904   -9.9462   11.0041 C   0  0  0  0  0  0  0  0  0  0  0  0
    7.3943  -10.7809   11.7166 C   0  0  0  0  0  0  0  0  0  0  0  0
    5.9337  -10.7665   10.8869 S   0  0  0  0  0  0  0  0  0  0  0  0
   -0.2123    1.9857    0.8892 H   0  0  0  0  0  0  0  0  0  0  0  0
   -1.6985    1.8375   -0.0791 H   0  0  0  0  0  0  0  0  0  0  0  0
   -1.7637    1.6346    1.6881 H   0  0  0  0  0  0  0  0  0  0  0  0
   -1.8604   -0.5592    0.5362 H   0  0  0  0  0  0  0  0  0  0  0  0
   -0.3090   -0.2081   -0.2627 H   0  0  0  0  0  0  0  0  0  0  0  0
    0.7933   -0.0395    1.9521 H   0  0  0  0  0  0  0  0  0  0  0  0
   -0.7580   -0.3906    2.7510 H   0  0  0  0  0  0  0  0  0  0  0  0
   -0.8547   -2.5844    1.5991 H   0  0  0  0  0  0  0  0  0  0  0  0
    0.6967   -2.2333    0.8002 H   0  0  0  0  0  0  0  0  0  0  0  0
    1.7990   -2.0647    3.0150 H   0  0  0  0  0  0  0  0  0  0  0  0
    0.2476   -2.4158    3.8138 H   0  0  0  0  0  0  0  0  0  0  0  0
    0.1509   -4.6096    2.6619 H   0  0  0  0  0  0  0  0  0  0  0  0
    1.7023   -4.2585    1.8631 H   0  0  0  0  0  0  0  0  0  0  0  0
    2.0554   -3.9854    4.6518 H   0  0  0  0  0  0  0  0  0  0  0  0
    2.4353   -9.5065    7.1680 H   0  0  0  0  0  0  0  0  0  0  0  0
    3.8240  -10.2999    9.0538 H   0  0  0  0  0  0  0  0  0  0  0  0
    8.2761   -8.6680    9.2734 H   0  0  0  0  0  0  0  0  0  0  0  0
    9.2070   -9.7595   11.3171 H   0  0  0  0  0  0  0  0  0  0  0  0
    7.6414  -11.3269   12.6151 H   0  0  0  0  0  0  0  0  0  0  0  0
  1  2  1  0  0  0  0
  1 28  1  0  0  0  0
  1 29  1  0  0  0  0
  1 30  1  0  0  0  0
  2  3  1  0  0  0  0
  2 31  1  0  0  0  0
  2 32  1  0  0  0  0
  3  4  1  0  0  0  0
  3 33  1  0  0  0  0
  3 34  1  0  0  0  0
  4  5  1  0  0  0  0
  4 35  1  0  0  0  0
  4 36  1  0  0  0  0
  5  6  1  0  0  0  0
  5 37  1  0  0  0  0
  5 38  1  0  0  0  0
  6  7  1  0  0  0  0
  6 39  1  0  0  0  0
  6 40  1  0  0  0  0
  7  8  1  0  0  0  0
  7 41  1  0  0  0  0
  8  9  1  0  0  0  0
  8 10  2  0  0  0  0
 10 11  1  0  0  0  0
 10 13  1  0  0  0  0
 11 12  3  0  0  0  0
 13 14  2  0  0  0  0
 13 15  1  0  0  0  0
 15 21  1  0  0  0  0
 15 16  2  0  0  0  0
 16 17  1  0  0  0  0
 16 42  1  0  0  0  0
 17 18  2  0  0  0  0
 17 43  1  0  0  0  0
 18 19  1  0  0  0  0
 18 23  1  0  0  0  0
 19 20  1  0  0  0  0
 19 21  1  0  0  0  0
 21 22  2  0  0  0  0
 23 27  1  0  0  0  0
 23 24  2  0  0  0  0
 24 25  1  0  0  0  0
 24 44  1  0  0  0  0
 25 26  2  0  0  0  0
 25 45  1  0  0  0  0
 26 27  1  0  0  0  0
 26 46  1  0  0  0  0
M  CHG  1   9  -1
M  END
$$$$
ZINC37238940
 OpenBabel01252620473D

 23 24  0  0  0  0  0  0  0  0999 V2000
   -0.0184    1.5028    0.0103 C   0  0  0  0  0  0  0  0  0  0  0  0
    0.0021   -0.0041    0.0020 C   0  0  0  0  0  0  0  0  0  0  0  0
    0.0062   -0.7278   -1.1639 C   0  0  0  0  0  0  0  0  0  0  0  0
    0.0249   -2.0836   -1.0995 C   0  0  0  0  0  0  0  0  0  0  0  0
    0.0375   -2.4182    0.5468 S   0  0  0  0  0  0  0  0  0  0  0  0
    0.0238   -0.7497    1.1745 C   0  0  0  0  0  0  0  0  0  0  0  0
    0.0310   -0.3006    2.5192 C   0  0  0  0  0  0  0  0  0  0  0  0
    0.0171    0.8995    2.7642 O   0  0  0  0  0  0  0  0  0  0  0  0
    0.0512   -1.1127    3.4360 O   0  0  0  0  0  1  0  0  0  0  0  0
    0.0333   -3.2305   -2.4371 S   0  0  0  0  0  0  0  0  0  0  0  0
   -0.4984   -4.4476   -1.9318 O   0  0  0  0  0  0  0  0  0  0  0  0
   -0.5326   -2.5571   -3.5531 O   0  0  0  0  0  0  0  0  0  0  0  0
    1.6175   -3.5278   -2.8171 N   0  0  0  0  0  2  0  0  0  0  0  0
    1.9313   -4.4040   -3.8454 C   0  0  0  0  0  0  0  0  0  0  0  0
    1.1355   -5.0987   -4.6477 N   0  0  0  0  0  0  0  0  0  0  0  0
    1.5941   -5.8595   -5.5429 N   0  0  0  0  0  0  0  0  0  0  0  0
    2.8878   -6.0133   -5.7388 C   0  0  0  0  0  0  0  0  0  0  0  0
    3.5269   -4.9162   -4.4763 S   0  0  0  0  0  0  0  0  0  0  0  0
    1.0042    1.8801    0.0026 H   0  0  0  0  0  0  0  0  0  0  0  0
   -0.5455    1.8639   -0.8728 H   0  0  0  0  0  0  0  0  0  0  0  0
   -0.5286    1.8543    0.9071 H   0  0  0  0  0  0  0  0  0  0  0  0
   -0.0057   -0.2254   -2.1199 H   0  0  0  0  0  0  0  0  0  0  0  0
    3.4131   -6.6235   -6.4586 H   0  0  0  0  0  0  0  0  0  0  0  0
  1  2  1  0  0  0  0
  1 19  1  0  0  0  0
  1 20  1  0  0  0  0
  1 21  1  0  0  0  0
  2  6  2  0  0  0  0
  2  3  1  0  0  0  0
  3  4  2  0  0  0  0
  3 22  1  0  0  0  0
  4  5  1  0  0  0  0
  4 10  1  0  0  0  0
  5  6  1  0  0  0  0
  6  7  1  0  0  0  0
  7  8  2  0  0  0  0
  7  9  1  0  0  0  0
 10 11  2  0  0  0  0
 10 12  2  0  0  0  0
 10 13  1  0  0  0  0
 13 14  1  0  0  0  0
 14 18  1  0  0  0  0
 14 15  2  0  0  0  0
 15 16  1  0  0  0  0
 16 17  2  0  0  0  0
 17 18  1  0  0  0  0
 17 23  1  0  0  0  0
M  END
$$$$
ZINC57454606
 OpenBabel01252620473D

 58 58  0  0  1  0  0  0  0  0999 V2000
   -0.0187    1.5258    0.0104 C   0  0  0  0  0  0  0  0  0  0  0  0
    0.0021   -0.0041    0.0020 C   0  0  0  0  0  0  0  0  0  0  0  0
    0.7421   -0.5109    1.2415 C   0  0  1  0  0  0  0  0  0  0  0  0
    0.6554   -2.0374    1.2986 C   0  0  0  0  0  0  0  0  0  0  0  0
    1.3954   -2.5442    2.5382 C   0  0  0  0  0  0  0  0  0  0  0  0
   -0.8125   -2.4625    1.3716 C   0  0  0  0  0  0  0  0  0  0  0  0
    2.1476   -0.1038    1.1716 N   0  0  0  0  0  0  0  0  0  0  0  0
    2.8685    0.0265    2.3029 C   0  0  0  0  0  0  0  0  0  0  0  0
    2.3536   -0.1931    3.3788 O   0  0  0  0  0  0  0  0  0  0  0  0
    4.3144    0.4453    2.2310 C   0  0  0  0  0  0  0  0  0  0  0  0
    4.8709    0.5137    3.5845 N   0  0  0  0  0  0  0  0  0  0  0  0
    6.1579    0.8699    3.7667 C   0  0  0  0  0  0  0  0  0  0  0  0
    6.8569    1.1343    2.8081 O   0  0  0  0  0  0  0  0  0  0  0  0
    6.7195    0.9389    5.1326 C   0  0  0  0  0  0  0  0  0  0  0  0
    5.9211    0.6303    6.2351 C   0  0  0  0  0  0  0  0  0  0  0  0
    6.4515    0.6962    7.5070 C   0  0  0  0  0  0  0  0  0  0  0  0
    7.7715    1.0677    7.6910 C   0  0  0  0  0  0  0  0  0  0  0  0
    8.5682    1.3754    6.6024 C   0  0  0  0  0  0  0  0  0  0  0  0
    8.0519    1.3074    5.3248 C   0  0  0  0  0  0  0  0  0  0  0  0
    8.4408    1.1500    9.3188 S   0  0  0  0  0  0  0  0  0  0  0  0
    9.5399    2.0489    9.2611 O   0  0  0  0  0  0  0  0  0  0  0  0
    7.3431    1.3445   10.1999 O   0  0  0  0  0  0  0  0  0  0  0  0
    9.0680   -0.3427    9.6664 N   0  0  0  0  0  0  0  0  0  0  0  0
   10.4644   -0.6442    9.3419 C   0  0  0  0  0  0  0  0  0  0  0  0
   11.3393   -0.3939   10.5718 C   0  0  0  0  0  0  0  0  0  0  0  0
    8.2264   -1.3618   10.2983 C   0  0  0  0  0  0  0  0  0  0  0  0
    7.6271   -2.2681    9.2210 C   0  0  0  0  0  0  0  0  0  0  0  0
    1.0039    1.9031    0.0027 H   0  0  0  0  0  0  0  0  0  0  0  0
   -0.5459    1.8868   -0.8726 H   0  0  0  0  0  0  0  0  0  0  0  0
   -0.5289    1.8773    0.9072 H   0  0  0  0  0  0  0  0  0  0  0  0
   -1.0205   -0.3814    0.0098 H   0  0  0  0  0  0  0  0  0  0  0  0
    0.5123   -0.3556   -0.8948 H   0  0  0  0  0  0  0  0  0  0  0  0
    0.2852   -0.0874    2.1360 H   0  0  0  0  0  0  0  0  0  0  0  0
    1.1123   -2.4609    0.4042 H   0  0  0  0  0  0  0  0  0  0  0  0
    0.9385   -2.1207    3.4326 H   0  0  0  0  0  0  0  0  0  0  0  0
    1.3337   -3.6317    2.5788 H   0  0  0  0  0  0  0  0  0  0  0  0
    2.4412   -2.2414    2.4861 H   0  0  0  0  0  0  0  0  0  0  0  0
   -1.3397   -2.1014    0.4886 H   0  0  0  0  0  0  0  0  0  0  0  0
   -0.8743   -3.5500    1.4123 H   0  0  0  0  0  0  0  0  0  0  0  0
   -1.2694   -2.0389    2.2661 H   0  0  0  0  0  0  0  0  0  0  0  0
    2.5595    0.0718    0.3111 H   0  0  0  0  0  0  0  0  0  0  0  0
    4.8747   -0.2826    1.6441 H   0  0  0  0  0  0  0  0  0  0  0  0
    4.3858    1.4251    1.7588 H   0  0  0  0  0  0  0  0  0  0  0  0
    4.3131    0.3026    4.3494 H   0  0  0  0  0  0  0  0  0  0  0  0
    4.8904    0.3408    6.0929 H   0  0  0  0  0  0  0  0  0  0  0  0
    5.8348    0.4576    8.3609 H   0  0  0  0  0  0  0  0  0  0  0  0
    9.5977    1.6651    6.7528 H   0  0  0  0  0  0  0  0  0  0  0  0
    8.6762    1.5431    4.4756 H   0  0  0  0  0  0  0  0  0  0  0  0
   10.5503   -1.6884    9.0413 H   0  0  0  0  0  0  0  0  0  0  0  0
   10.7942   -0.0025    8.5248 H   0  0  0  0  0  0  0  0  0  0  0  0
   11.2534    0.6503   10.8724 H   0  0  0  0  0  0  0  0  0  0  0  0
   11.0095   -1.0355   11.3889 H   0  0  0  0  0  0  0  0  0  0  0  0
   12.3783   -0.6182   10.3304 H   0  0  0  0  0  0  0  0  0  0  0  0
    8.8303   -1.9594   10.9811 H   0  0  0  0  0  0  0  0  0  0  0  0
    7.4232   -0.8768   10.8531 H   0  0  0  0  0  0  0  0  0  0  0  0
    7.0010   -3.0263    9.6912 H   0  0  0  0  0  0  0  0  0  0  0  0
    7.0232   -1.6705    8.5382 H   0  0  0  0  0  0  0  0  0  0  0  0
    8.4303   -2.7531    8.6662 H   0  0  0  0  0  0  0  0  0  0  0  0
  1  2  1  0  0  0  0
  1 28  1  0  0  0  0
  1 29  1  0  0  0  0
  1 30  1  0  0  0  0
  2  3  1  0  0  0  0
  2 31  1  0  0  0  0
  2 32  1  0  0  0  0
  3  4  1  0  0  0  0
  3  7  1  0  0  0  0
  3 33  1  1  0  0  0
  4  5  1  0  0  0  0
  4  6  1  0  0  0  0
  4 34  1  0  0  0  0
  5 35  1  0  0  0  0
  5 36  1  0  0  0  0
  5 37  1  0  0  0  0
  6 38  1  0  0  0  0
  6 39  1  0  0  0  0
  6 40  1  0  0  0  0
  7  8  1  0  0  0  0
  7 41  1  0  0  0  0
  8  9  2  0  0  0  0
  8 10  1  0  0  0  0
 10 11  1  0  0  0  0
 10 42  1  0  0  0  0
 10 43  1  0  0  0  0
 11 12  1  0  0  0  0
 11 44  1  0  0  0  0
 12 13  2  0  0  0  0
 12 14  1  0  0  0  0
 14 19  2  0  0  0  0
 14 15  1  0  0  0  0
 15 16  2  0  0  0  0
 15 45  1  0  0  0  0
 16 17  1  0  0  0  0
 16 46  1  0  0  0  0
 17 18  2  0  0  0  0
 17 20  1  0  0  0  0
 18 19  1  0  0  0  0
 18 47  1  0  0  0  0
 19 48  1  0  0  0  0
 20 21  2  0  0  0  0
 20 22  2  0  0  0  0
 20 23  1  0  0  0  0
 23 24  1  0  0  0  0
 23 26  1  0  0  0  0
 24 25  1  0  0  0  0
 24 49  1  0  0  0  0
 24 50  1  0  0  0  0
 25 51  1  0  0  0  0
 25 52  1  0  0  0  0
 25 53  1  0  0  0  0
 26 27  1  0  0  0  0
 26 54  1  0  0  0  0
 26 55  1  0  0  0  0
 27 56  1  0  0  0  0
 27 57  1  0  0  0  0
 27 58  1  0  0  0  0
M  END
$$$$
ZINC64862681
 OpenBabel01252620473D

 39 40  0  0  1  0  0  0  0  0999 V2000
   -0.0187    1.5258    0.0104 C   0  0  0  0  0  0  0  0  0  0  0  0
    0.0021   -0.0041    0.0020 C   0  0  0  0  0  0  0  0  0  0  0  0
    0.6932   -0.4774    1.1597 O   0  0  0  0  0  0  0  0  0  0  0  0
    0.8011   -1.8127    1.3044 C   0  0  0  0  0  0  0  0  0  0  0  0
    0.3215   -2.5547    0.4706 O   0  0  0  0  0  0  0  0  0  0  0  0
    1.5021   -2.3741    2.4765 C   0  0  0  0  0  0  0  0  0  0  0  0
    1.6625   -3.6907    2.7001 C   0  0  0  0  0  0  0  0  0  0  0  0
    2.4319   -3.7765    4.0052 C   0  0  2  0  0  0  0  0  0  0  0  0
    1.8482   -4.2992    4.7628 H   0  0  0  0  0  0  0  0  0  0  0  0
    2.6244   -2.3222    4.3864 C   0  0  0  0  0  0  0  0  0  0  0  0
    2.0703   -1.6212    3.4597 N   0  0  0  0  0  0  0  0  0  0  0  0
    3.3319   -1.7986    5.6096 C   0  0  0  0  0  0  0  0  0  0  0  0
    4.0312   -4.5948    3.7537 S   0  0  0  0  0  0  0  0  0  0  0  0
    3.8347   -5.9646    3.4310 O   0  0  0  0  0  0  0  0  0  0  0  0
    4.8795   -3.7777    2.9587 O   0  0  0  0  0  0  0  0  0  0  0  0
    4.7410   -4.6107    5.2498 N   0  0  0  0  0  2  0  0  0  0  0  0
    6.0059   -5.1790    5.4167 C   0  0  0  0  0  0  0  0  0  0  0  0
    6.6723   -5.7261    4.3272 C   0  0  0  0  0  0  0  0  0  0  0  0
    7.9231   -6.2871    4.4940 C   0  0  0  0  0  0  0  0  0  0  0  0
    8.5136   -6.3056    5.7442 C   0  0  0  0  0  0  0  0  0  0  0  0
    7.8529   -5.7614    6.8330 C   0  0  0  0  0  0  0  0  0  0  0  0
    6.6022   -5.1930    6.6706 C   0  0  0  0  0  0  0  0  0  0  0  0
    8.4324   -5.7810    8.0533 F   0  0  0  0  0  0  0  0  0  0  0  0
    1.1820   -4.8323    1.8417 C   0  0  0  0  0  0  0  0  0  0  0  0
    1.0039    1.9031    0.0027 H   0  0  0  0  0  0  0  0  0  0  0  0
   -0.5459    1.8868   -0.8726 H   0  0  0  0  0  0  0  0  0  0  0  0
   -0.5289    1.8773    0.9072 H   0  0  0  0  0  0  0  0  0  0  0  0
   -1.0205   -0.3814    0.0098 H   0  0  0  0  0  0  0  0  0  0  0  0
    0.5123   -0.3556   -0.8948 H   0  0  0  0  0  0  0  0  0  0  0  0
    4.3883   -1.6531    5.3839 H   0  0  0  0  0  0  0  0  0  0  0  0
    2.8894   -0.8476    5.9061 H   0  0  0  0  0  0  0  0  0  0  0  0
    3.2297   -2.5163    6.4235 H   0  0  0  0  0  0  0  0  0  0  0  0
    6.2122   -5.7130    3.3502 H   0  0  0  0  0  0  0  0  0  0  0  0
    8.4408   -6.7122    3.6469 H   0  0  0  0  0  0  0  0  0  0  0  0
    9.4916   -6.7456    5.8719 H   0  0  0  0  0  0  0  0  0  0  0  0
    6.0885   -4.7646    7.5185 H   0  0  0  0  0  0  0  0  0  0  0  0
    0.6607   -4.4370    0.9699 H   0  0  0  0  0  0  0  0  0  0  0  0
    2.0358   -5.4264    1.5160 H   0  0  0  0  0  0  0  0  0  0  0  0
    0.5019   -5.4593    2.4183 H   0  0  0  0  0  0  0  0  0  0  0  0
  1  2  1  0  0  0  0
  1 25  1  0  0  0  0
  1 26  1  0  0  0  0
  1 27  1  0  0  0  0
  2  3  1  0  0  0  0
  2 28  1  0  0  0  0
  2 29  1  0  0  0  0
  3  4  1  0  0  0  0
  4  5  2  0  0  0  0
  4  6  1  0  0  0  0
  6 11  1  0  0  0  0
  6  7  2  0  0  0  0
  7  8  1  0  0  0  0
  7 24  1  0  0  0  0
  8  9  1  1  0  0  0
  8 10  1  0  0  0  0
  8 13  1  0  0  0  0
 10 11  2  0  0  0  0
 10 12  1  0  0  0  0
 12 30  1  0  0  0  0
 12 31  1  0  0  0  0
 12 32  1  0  0  0  0
 13 14  2  0  0  0  0
 13 15  2  0  0  0  0
 13 16  1  0  0  0  0
 16 17  1  0  0  0  0
 17 22  2  0  0  0  0
 17 18  1  0  0  0  0
 18 19  2  0  0  0  0
 18 33  1  0  0  0  0
 19 20  1  0  0  0  0
 19 34  1  0  0  0  0
 20 21  2  0  0  0  0
 20 35  1  0  0  0  0
 21 22  1  0  0  0  0
 21 23  1  0  0  0  0
 22 36  1  0  0  0  0
 24 37  1  0  0  0  0
 24 38  1  0  0  0  0
 24 39  1  0  0  0  0
M  END
$$$$
ZINC13412866
 OpenBabel01252620473D

 47 50  0  0  0  0  0  0  0  0999 V2000
    2.8034   -4.2545   -0.0100 C   0  0  0  0  0  0  0  0  0  0  0  0
    2.0831   -3.7728   -1.0876 C   0  0  0  0  0  0  0  0  0  0  0  0
    1.5879   -2.4836   -1.0683 C   0  0  0  0  0  0  0  0  0  0  0  0
    1.8139   -1.6711    0.0346 C   0  0  0  0  0  0  0  0  0  0  0  0
    2.5422   -2.1556    1.1126 C   0  0  0  0  0  0  0  0  0  0  0  0
    3.0297   -3.4478    1.0901 C   0  0  0  0  0  0  0  0  0  0  0  0
    1.3125   -0.3624    0.0572 N   0  0  0  0  0  0  0  0  0  0  0  0
    2.0397    0.8095    0.0773 C   0  0  0  0  0  0  0  0  0  0  0  0
    1.1733    1.7988    0.0944 N   0  0  0  0  0  0  0  0  0  0  0  0
   -0.0247    1.3344    0.0865 N   0  0  0  0  0  0  0  0  0  0  0  0
   -0.0023    0.0213    0.0639 C   0  0  0  0  0  0  0  0  0  0  0  0
   -1.4030   -1.0476    0.0456 S   0  0  0  0  0  0  0  0  0  0  0  0
   -2.7343    0.1784    0.0661 C   0  0  0  0  0  0  0  0  0  0  0  0
   -4.0664   -0.5262    0.0540 C   0  0  0  0  0  0  0  0  0  0  0  0
   -4.1112   -1.7380    0.0335 O   0  0  0  0  0  0  0  0  0  0  0  0
   -5.2079    0.1902    0.0659 N   0  0  0  0  0  0  0  0  0  0  0  0
   -6.4372   -0.4565   -0.0383 C   0  0  0  0  0  0  0  0  0  0  0  0
   -6.6207   -1.7007    0.5477 C   0  0  0  0  0  0  0  0  0  0  0  0
   -7.8530   -2.3419    0.4453 C   0  0  0  0  0  0  0  0  0  0  0  0
   -8.9012   -1.7385   -0.2552 C   0  0  0  0  0  0  0  0  0  0  0  0
   -8.7226   -0.5068   -0.8427 C   0  0  0  0  0  0  0  0  0  0  0  0
   -7.4913    0.1456   -0.7408 C   0  0  0  0  0  0  0  0  0  0  0  0
   -7.3003    1.4666   -1.3711 C   0  0  0  0  0  0  0  0  0  0  0  0
   -6.2035    1.9889   -1.3666 O   0  0  0  0  0  0  0  0  0  0  0  0
   -8.0511   -3.6662    1.0748 C   0  0  0  0  0  0  0  0  0  0  0  0
   -7.1410   -4.1913    1.6837 O   0  0  0  0  0  0  0  0  0  0  0  0
    3.5062    0.9299    0.0797 C   0  0  0  0  0  0  0  0  0  0  0  0
    4.2839    2.0309   -0.1772 C   0  0  0  0  0  0  0  0  0  0  0  0
    5.6531    1.9014   -0.1149 C   0  0  0  0  0  0  0  0  0  0  0  0
    6.1908    0.6939    0.1975 C   0  0  0  0  0  0  0  0  0  0  0  0
    4.7369   -0.3166    0.4251 S   0  0  0  0  0  0  0  0  0  0  0  0
    3.1896   -5.2629   -0.0274 H   0  0  0  0  0  0  0  0  0  0  0  0
    1.9080   -4.4051   -1.9454 H   0  0  0  0  0  0  0  0  0  0  0  0
    1.0251   -2.1080   -1.9101 H   0  0  0  0  0  0  0  0  0  0  0  0
    2.7234   -1.5244    1.9701 H   0  0  0  0  0  0  0  0  0  0  0  0
    3.5919   -3.8270    1.9306 H   0  0  0  0  0  0  0  0  0  0  0  0
   -2.6536    0.7874    0.9665 H   0  0  0  0  0  0  0  0  0  0  0  0
   -2.6533    0.8175   -0.8132 H   0  0  0  0  0  0  0  0  0  0  0  0
   -5.1734    1.1562    0.1471 H   0  0  0  0  0  0  0  0  0  0  0  0
   -5.8102   -2.1698    1.0858 H   0  0  0  0  0  0  0  0  0  0  0  0
   -9.8541   -2.2405   -0.3360 H   0  0  0  0  0  0  0  0  0  0  0  0
   -9.5350   -0.0442   -1.3834 H   0  0  0  0  0  0  0  0  0  0  0  0
    3.8310    2.9798   -0.4238 H   0  0  0  0  0  0  0  0  0  0  0  0
    6.2919    2.7498   -0.3115 H   0  0  0  0  0  0  0  0  0  0  0  0
    7.2307    0.4174    0.2898 H   0  0  0  0  0  0  0  0  0  0  0  0
   -8.3424    2.0931   -1.9514 O   0  0  0  0  0  1  0  0  0  0  0  0
   -9.2408   -4.2893    0.9725 O   0  0  0  0  0  1  0  0  0  0  0  0
  1  6  2  0  0  0  0
  1  2  1  0  0  0  0
  1 32  1  0  0  0  0
  2  3  2  0  0  0  0
  2 33  1  0  0  0  0
  3  4  1  0  0  0  0
  3 34  1  0  0  0  0
  4  5  2  0  0  0  0
  4  7  1  0  0  0  0
  5  6  1  0  0  0  0
  5 35  1  0  0  0  0
  6 36  1  0  0  0  0
  7 11  1  0  0  0  0
  7  8  1  0  0  0  0
  8  9  2  0  0  0  0
  8 27  1  0  0  0  0
  9 10  1  0  0  0  0
 10 11  2  0  0  0  0
 11 12  1  0  0  0  0
 12 13  1  0  0  0  0
 13 14  1  0  0  0  0
 13 37  1  0  0  0  0
 13 38  1  0  0  0  0
 14 15  2  0  0  0  0
 14 16  1  0  0  0  0
 16 17  1  0  0  0  0
 16 39  1  0  0  0  0
 17 22  2  0  0  0  0
 17 18  1  0  0  0  0
 18 19  2  0  0  0  0
 18 40  1  0  0  0  0
 19 20  1  0  0  0  0
 19 25  1  0  0  0  0
 20 21  2  0  0  0  0
 20 41  1  0  0  0  0
 21 22  1  0  0  0  0
 21 42  1  0  0  0  0
 22 23  1  0  0  0  0
 23 24  2  0  0  0  0
 23 46  1  0  0  0  0
 25 26  2  0  0  0  0
 25 47  1  0  0  0  0
 27 31  1  0  0  0  0
 27 28  2  0  0  0  0
 28 29  1  0  0  0  0
 28 43  1  0  0  0  0
 29 30  2  0  0  0  0
 29 44  1  0  0  0  0
 30 31  1  0  0  0  0
 30 45  1  0  0  0  0
M  END
$$$$
ZINC60349085
 OpenBabel01252620473D

 47 50  0  0  0  0  0  0  0  0999 V2000
   -2.4240   -3.3311    0.1629 C   0  0  0  0  0  0  0  0  0  0  0  0
   -2.2182   -3.9243    1.3962 C   0  0  0  0  0  0  0  0  0  0  0  0
   -0.9621   -4.3716    1.7488 C   0  0  0  0  0  0  0  0  0  0  0  0
    0.1035   -4.2252    0.8576 C   0  0  0  0  0  0  0  0  0  0  0  0
   -0.1116   -3.6260   -0.3857 C   0  0  0  0  0  0  0  0  0  0  0  0
   -1.3729   -3.1827   -0.7249 C   0  0  0  0  0  0  0  0  0  0  0  0
    1.4519   -4.7016    1.2285 C   0  0  0  0  0  0  0  0  0  0  0  0
    1.5853   -5.5101    2.1262 O   0  0  0  0  0  0  0  0  0  0  0  0
    2.6385   -4.1950    0.5082 C   0  0  0  0  0  0  0  0  0  0  0  0
    2.6023   -2.9417   -0.1082 C   0  0  0  0  0  0  0  0  0  0  0  0
    3.7116   -2.4715   -0.7800 C   0  0  0  0  0  0  0  0  0  0  0  0
    4.8614   -3.2368   -0.8466 C   0  0  0  0  0  0  0  0  0  0  0  0
    4.9077   -4.4850   -0.2373 C   0  0  0  0  0  0  0  0  0  0  0  0
    3.8012   -4.9643    0.4460 C   0  0  0  0  0  0  0  0  0  0  0  0
    6.0738   -5.2556   -0.3088 N   0  0  0  0  0  0  0  0  0  0  0  0
    5.9901   -6.5975   -0.4027 C   0  0  0  0  0  0  0  0  0  0  0  0
    4.9088   -7.1434   -0.3411 O   0  0  0  0  0  0  0  0  0  0  0  0
    7.2400   -7.4196   -0.5843 C   0  0  0  0  0  0  0  0  0  0  0  0
    6.8688   -8.9018   -0.6615 C   0  0  0  0  0  0  0  0  0  0  0  0
    8.0839   -9.7010   -0.8380 N   0  0  0  0  0  0  0  0  0  0  0  0
    8.6736  -10.0678   -2.0274 C   0  0  0  0  0  0  0  0  0  0  0  0
    9.7389  -10.7772   -1.7257 N   0  0  0  0  0  0  0  0  0  0  0  0
    9.8526  -10.8766   -0.4496 N   0  0  0  0  0  0  0  0  0  0  0  0
    8.8727  -10.2336    0.1436 C   0  0  0  0  0  0  0  0  0  0  0  0
    8.6195  -10.0883    1.8813 S   0  0  0  0  0  1  0  0  0  0  0  0
    8.2008   -9.7302   -3.3797 C   0  0  0  0  0  0  0  0  0  0  0  0
    8.8658   -9.8226   -4.5763 C   0  0  0  0  0  0  0  0  0  0  0  0
    8.2110   -9.4442   -5.7268 C   0  0  0  0  0  0  0  0  0  0  0  0
    6.9327   -8.9930   -5.6435 C   0  0  0  0  0  0  0  0  0  0  0  0
    6.6101   -9.1012   -3.8911 S   0  0  0  0  0  0  0  0  0  0  0  0
   -3.4105   -2.9863   -0.1097 H   0  0  0  0  0  0  0  0  0  0  0  0
   -3.0430   -4.0368    2.0842 H   0  0  0  0  0  0  0  0  0  0  0  0
   -0.8028   -4.8337    2.7119 H   0  0  0  0  0  0  0  0  0  0  0  0
    0.7079   -3.5093   -1.0793 H   0  0  0  0  0  0  0  0  0  0  0  0
   -1.5406   -2.7192   -1.6858 H   0  0  0  0  0  0  0  0  0  0  0  0
    1.7059   -2.3412   -0.0591 H   0  0  0  0  0  0  0  0  0  0  0  0
    3.6818   -1.5024   -1.2559 H   0  0  0  0  0  0  0  0  0  0  0  0
    5.7265   -2.8632   -1.3744 H   0  0  0  0  0  0  0  0  0  0  0  0
    3.8371   -5.9319    0.9245 H   0  0  0  0  0  0  0  0  0  0  0  0
    6.9423   -4.8239   -0.2907 H   0  0  0  0  0  0  0  0  0  0  0  0
    7.7400   -7.1218   -1.5059 H   0  0  0  0  0  0  0  0  0  0  0  0
    7.9085   -7.2559    0.2610 H   0  0  0  0  0  0  0  0  0  0  0  0
    6.3688   -9.1996    0.2601 H   0  0  0  0  0  0  0  0  0  0  0  0
    6.2003   -9.0654   -1.5067 H   0  0  0  0  0  0  0  0  0  0  0  0
    9.8826  -10.1846   -4.6149 H   0  0  0  0  0  0  0  0  0  0  0  0
    8.7080   -9.5051   -6.6838 H   0  0  0  0  0  0  0  0  0  0  0  0
    6.2780   -8.6590   -6.4348 H   0  0  0  0  0  0  0  0  0  0  0  0
  1  6  2  0  0  0  0
  1  2  1  0  0  0  0
  1 31  1  0  0  0  0
  2  3  2  0  0  0  0
  2 32  1  0  0  0  0
  3  4  1  0  0  0  0
  3 33  1  0  0  0  0
  4  5  2  0  0  0  0
  4  7  1  0  0  0  0
  5  6  1  0  0  0  0
  5 34  1  0  0  0  0
  6 35  1  0  0  0  0
  7  8  2  0  0  0  0
  7  9  1  0  0  0  0
  9 14  2  0  0  0  0
  9 10  1  0  0  0  0
 10 11  2  0  0  0  0
 10 36  1  0  0  0  0
 11 12  1  0  0  0  0
 11 37  1  0  0  0  0
 12 13  2  0  0  0  0
 12 38  1  0  0  0  0
 13 14  1  0  0  0  0
 13 15  1  0  0  0  0
 14 39  1  0  0  0  0
 15 16  1  0  0  0  0
 15 40  1  0  0  0  0
 16 17  2  0  0  0  0
 16 18  1  0  0  0  0
 18 19  1  0  0  0  0
 18 41  1  0  0  0  0
 18 42  1  0  0  0  0
 19 20  1  0  0  0  0
 19 43  1  0  0  0  0
 19 44  1  0  0  0  0
 20 24  1  0  0  0  0
 20 21  1  0  0  0  0
 21 22  2  0  0  0  0
 21 26  1  0  0  0  0
 22 23  1  0  0  0  0
 23 24  2  0  0  0  0
 24 25  1  0  0  0  0
 26 30  1  0  0  0  0
 26 27  2  0  0  0  0
 27 28  1  0  0  0  0
 27 45  1  0  0  0  0
 28 29  2  0  0  0  0
 28 46  1  0  0  0  0
 29 30  1  0  0  0  0
 29 47  1  0  0  0  0
M  END
$$$$
ZINC40123816
 OpenBabel01252620473D

 46 48  0  0  1  0  0  0  0  0999 V2000
    0.3066    0.7333    0.6189 C   0  0  0  0  0  0  0  0  0  0  0  0
    0.1811   -0.7901    0.5504 C   0  0  0  0  0  0  0  0  0  0  0  0
   -1.2975   -1.1775    0.4841 C   0  0  0  0  0  0  0  0  0  0  0  0
   -1.4147   -2.6003    0.4202 O   0  0  0  0  0  0  0  0  0  0  0  0
   -2.6695   -3.1128    0.3561 C   0  0  0  0  0  0  0  0  0  0  0  0
   -3.7675   -2.2594    0.3491 C   0  0  0  0  0  0  0  0  0  0  0  0
   -5.0420   -2.7752    0.2838 C   0  0  0  0  0  0  0  0  0  0  0  0
   -5.2318   -4.1594    0.2244 C   0  0  0  0  0  0  0  0  0  0  0  0
   -4.1252   -5.0137    0.2317 C   0  0  0  0  0  0  0  0  0  0  0  0
   -2.8535   -4.4894    0.2919 C   0  0  0  0  0  0  0  0  0  0  0  0
   -1.6597   -5.4091    0.2940 C   0  0  0  0  0  0  0  0  0  0  0  0
   -6.5968   -4.7169    0.1547 C   0  0  0  0  0  0  0  0  0  0  0  0
   -6.7588   -5.9193    0.0591 O   0  0  0  0  0  0  0  0  0  0  0  0
   -7.7575   -3.8220    0.2007 C   0  0  0  0  0  0  0  0  0  0  0  0
   -8.6845   -3.7525    1.1841 C   0  0  0  0  0  0  0  0  0  0  0  0
   -9.6833   -2.7195    0.8378 C   0  0  0  0  0  0  0  0  0  0  0  0
  -10.6422   -2.4200    1.5211 O   0  0  0  0  0  0  0  0  0  0  0  0
   -9.3736   -2.1600   -0.3459 N   0  0  0  0  0  0  0  0  0  0  0  0
   -8.1454   -2.7953   -0.8376 C   0  0  2  0  0  0  0  0  0  0  0  0
   -7.3541   -2.0535   -0.9451 H   0  0  0  0  0  0  0  0  0  0  0  0
   -8.4080   -3.4691   -2.1598 C   0  0  0  0  0  0  0  0  0  0  0  0
   -9.5679   -4.2021   -2.3454 C   0  0  0  0  0  0  0  0  0  0  0  0
   -9.8079   -4.8207   -3.5605 C   0  0  0  0  0  0  0  0  0  0  0  0
   -8.8899   -4.7063   -4.5875 C   0  0  0  0  0  0  0  0  0  0  0  0
   -7.7321   -3.9747   -4.4023 C   0  0  0  0  0  0  0  0  0  0  0  0
   -7.4933   -3.3510   -3.1902 C   0  0  0  0  0  0  0  0  0  0  0  0
   -6.0420   -2.4264   -2.9609 Cl  0  0  0  0  0  0  0  0  0  0  0  0
  -10.4647   -4.3140   -1.3412 F   0  0  0  0  0  0  0  0  0  0  0  0
   -8.6954   -4.5085    2.3061 O   0  5  0  0  0  0  0  0  0  0  0  0
    1.3600    1.0093    0.6661 H   0  0  0  0  0  0  0  0  0  0  0  0
   -0.1454    1.1753   -0.2691 H   0  0  0  0  0  0  0  0  0  0  0  0
   -0.2055    1.1004    1.5083 H   0  0  0  0  0  0  0  0  0  0  0  0
    0.6932   -1.1572   -0.3390 H   0  0  0  0  0  0  0  0  0  0  0  0
    0.6331   -1.2321    1.4384 H   0  0  0  0  0  0  0  0  0  0  0  0
   -1.8096   -0.8104    1.3735 H   0  0  0  0  0  0  0  0  0  0  0  0
   -1.7494   -0.7355   -0.4039 H   0  0  0  0  0  0  0  0  0  0  0  0
   -3.6201   -1.1906    0.3953 H   0  0  0  0  0  0  0  0  0  0  0  0
   -5.8942   -2.1118    0.2787 H   0  0  0  0  0  0  0  0  0  0  0  0
   -4.2675   -6.0834    0.1863 H   0  0  0  0  0  0  0  0  0  0  0  0
   -1.4070   -5.6740    1.3207 H   0  0  0  0  0  0  0  0  0  0  0  0
   -1.8966   -6.3133   -0.2667 H   0  0  0  0  0  0  0  0  0  0  0  0
   -0.8120   -4.9052   -0.1704 H   0  0  0  0  0  0  0  0  0  0  0  0
   -9.8716   -1.4579   -0.7931 H   0  0  0  0  0  0  0  0  0  0  0  0
  -10.7123   -5.3929   -3.7059 H   0  0  0  0  0  0  0  0  0  0  0  0
   -9.0773   -5.1893   -5.5352 H   0  0  0  0  0  0  0  0  0  0  0  0
   -7.0153   -3.8863   -5.2052 H   0  0  0  0  0  0  0  0  0  0  0  0
  1  2  1  0  0  0  0
  1 30  1  0  0  0  0
  1 31  1  0  0  0  0
  1 32  1  0  0  0  0
  2  3  1  0  0  0  0
  2 33  1  0  0  0  0
  2 34  1  0  0  0  0
  3  4  1  0  0  0  0
  3 35  1  0  0  0  0
  3 36  1  0  0  0  0
  4  5  1  0  0  0  0
  5 10  2  0  0  0  0
  5  6  1  0  0  0  0
  6  7  2  0  0  0  0
  6 37  1  0  0  0  0
  7  8  1  0  0  0  0
  7 38  1  0  0  0  0
  8  9  2  0  0  0  0
  8 12  1  0  0  0  0
  9 10  1  0  0  0  0
  9 39  1  0  0  0  0
 10 11  1  0  0  0  0
 11 40  1  0  0  0  0
 11 41  1  0  0  0  0
 11 42  1  0  0  0  0
 12 13  2  0  0  0  0
 12 14  1  0  0  0  0
 14 19  1  0  0  0  0
 14 15  2  0  0  0  0
 15 16  1  0  0  0  0
 15 29  1  0  0  0  0
 16 17  2  0  0  0  0
 16 18  1  0  0  0  0
 18 19  1  0  0  0  0
 18 43  1  0  0  0  0
 19 20  1  6  0  0  0
 19 21  1  0  0  0  0
 21 26  2  0  0  0  0
 21 22  1  0  0  0  0
 22 23  2  0  0  0  0
 22 28  1  0  0  0  0
 23 24  1  0  0  0  0
 23 44  1  0  0  0  0
 24 25  2  0  0  0  0
 24 45  1  0  0  0  0
 25 26  1  0  0  0  0
 25 46  1  0  0  0  0
 26 27  1  0  0  0  0
M  CHG  1  29  -1
M  END
$$$$
ZINC63859228
 OpenBabel01252620473D

 44 45  0  0  0  0  0  0  0  0999 V2000
   -0.2677    1.6332   -0.8700 C   0  0  0  0  0  0  0  0  0  0  0  0
   -0.2205    0.1040   -0.8554 C   0  0  0  0  0  0  0  0  0  0  0  0
   -1.6247   -0.4472   -0.6001 C   0  0  0  0  0  0  0  0  0  0  0  0
   -1.5687   -2.2602   -0.5827 S   0  0  0  0  0  0  0  0  0  0  0  0
   -1.2700   -2.7531   -1.8816 O   0  0  0  0  0  0  0  0  0  0  0  0
   -0.8423   -2.7167    0.5500 O   0  0  0  0  0  0  0  0  0  0  0  0
   -3.1310   -2.7316   -0.3008 N   0  0  0  0  0  2  0  0  0  0  0  0
   -3.4482   -4.0920   -0.2246 C   0  0  0  0  0  0  0  0  0  0  0  0
   -2.4520   -5.0472   -0.3797 C   0  0  0  0  0  0  0  0  0  0  0  0
   -2.7651   -6.3897   -0.3045 C   0  0  0  0  0  0  0  0  0  0  0  0
   -4.0763   -6.7850   -0.0738 C   0  0  0  0  0  0  0  0  0  0  0  0
   -5.0725   -5.8300    0.0813 C   0  0  0  0  0  0  0  0  0  0  0  0
   -4.7585   -4.4874    0.0118 C   0  0  0  0  0  0  0  0  0  0  0  0
   -4.3940   -8.1470    0.0020 N   0  0  0  0  0  0  0  0  0  0  0  0
   -5.6968   -8.5389    0.1085 C   0  0  0  0  0  0  0  0  0  0  0  0
   -6.4852   -8.7001   -1.0359 C   0  0  0  0  0  0  0  0  0  0  0  0
   -7.8362   -9.1101   -0.8757 C   0  0  0  0  0  0  0  0  0  0  0  0
   -8.5529   -9.2613   -1.8485 O   0  0  0  0  0  0  0  0  0  0  0  0
   -8.3156   -9.3301    0.3644 N   0  0  0  0  0  0  0  0  0  0  0  0
   -7.5344   -9.1665    1.4456 C   0  0  0  0  0  0  0  0  0  0  0  0
   -7.9994   -9.3738    2.5495 O   0  0  0  0  0  0  0  0  0  0  0  0
   -6.2498   -8.7854    1.3367 N   0  0  0  0  0  0  0  0  0  0  0  0
   -5.4353   -8.6269    2.5441 C   0  0  0  0  0  0  0  0  0  0  0  0
   -9.7077   -9.7530    0.5362 C   0  0  0  0  0  0  0  0  0  0  0  0
   -5.9431   -8.4571   -2.3388 C   0  0  0  0  0  0  0  0  0  0  0  0
   -5.5131   -8.2643   -3.3725 N   0  0  0  0  0  0  0  0  0  0  0  0
    0.7327    2.0259   -1.0519 H   0  0  0  0  0  0  0  0  0  0  0  0
   -0.9389    1.9684   -1.6607 H   0  0  0  0  0  0  0  0  0  0  0  0
   -0.6306    1.9947    0.0921 H   0  0  0  0  0  0  0  0  0  0  0  0
    0.1424   -0.2575   -1.8175 H   0  0  0  0  0  0  0  0  0  0  0  0
    0.4507   -0.2312   -0.0647 H   0  0  0  0  0  0  0  0  0  0  0  0
   -1.9876   -0.0857    0.3621 H   0  0  0  0  0  0  0  0  0  0  0  0
   -2.2959   -0.1120   -1.3908 H   0  0  0  0  0  0  0  0  0  0  0  0
   -1.4324   -4.7398   -0.5595 H   0  0  0  0  0  0  0  0  0  0  0  0
   -1.9905   -7.1325   -0.4255 H   0  0  0  0  0  0  0  0  0  0  0  0
   -6.0921   -6.1375    0.2607 H   0  0  0  0  0  0  0  0  0  0  0  0
   -5.5324   -3.7446    0.1372 H   0  0  0  0  0  0  0  0  0  0  0  0
   -3.6880   -8.8118   -0.0212 H   0  0  0  0  0  0  0  0  0  0  0  0
   -5.5777   -7.6251    2.9495 H   0  0  0  0  0  0  0  0  0  0  0  0
   -5.7380   -9.3656    3.2862 H   0  0  0  0  0  0  0  0  0  0  0  0
   -4.3841   -8.7719    2.2948 H   0  0  0  0  0  0  0  0  0  0  0  0
  -10.1862   -9.8331   -0.4398 H   0  0  0  0  0  0  0  0  0  0  0  0
   -9.7342  -10.7221    1.0345 H   0  0  0  0  0  0  0  0  0  0  0  0
  -10.2385   -9.0184    1.1419 H   0  0  0  0  0  0  0  0  0  0  0  0
  1  2  1  0  0  0  0
  1 27  1  0  0  0  0
  1 28  1  0  0  0  0
  1 29  1  0  0  0  0
  2  3  1  0  0  0  0
  2 30  1  0  0  0  0
  2 31  1  0  0  0  0
  3  4  1  0  0  0  0
  3 32  1  0  0  0  0
  3 33  1  0  0  0  0
  4  5  2  0  0  0  0
  4  6  2  0  0  0  0
  4  7  1  0  0  0  0
  7  8  1  0  0  0  0
  8 13  2  0  0  0  0
  8  9  1  0  0  0  0
  9 10  2  0  0  0  0
  9 34  1  0  0  0  0
 10 11  1  0  0  0  0
 10 35  1  0  0  0  0
 11 12  2  0  0  0  0
 11 14  1  0  0  0  0
 12 13  1  0  0  0  0
 12 36  1  0  0  0  0
 13 37  1  0  0  0  0
 14 15  1  0  0  0  0
 14 38  1  0  0  0  0
 15 22  1  0  0  0  0
 15 16  2  0  0  0  0
 16 17  1  0  0  0  0
 16 25  1  0  0  0  0
 17 18  2  0  0  0  0
 17 19  1  0  0  0  0
 19 20  1  0  0  0  0
 19 24  1  0  0  0  0
 20 21  2  0  0  0  0
 20 22  1  0  0  0  0
 22 23  1  0  0  0  0
 23 39  1  0  0  0  0
 23 40  1  0  0  0  0
 23 41  1  0  0  0  0
 24 42  1  0  0  0  0
 24 43  1  0  0  0  0
 24 44  1  0  0  0  0
 25 26  3  0  0  0  0
M  END
$$$$
ZINC13258229
 OpenBabel01252620473D

 57 59  0  0  1  0  0  0  0  0999 V2000
   -2.8177    5.7973  -10.6734 C   0  0  0  0  0  0  0  0  0  0  0  0
   -3.0561    6.4103   -9.3175 C   0  0  0  0  0  0  0  0  0  0  0  0
   -2.6952    7.7233   -9.0795 C   0  0  0  0  0  0  0  0  0  0  0  0
   -2.9135    8.2856   -7.8357 C   0  0  0  0  0  0  0  0  0  0  0  0
   -3.4927    7.5348   -6.8298 C   0  0  0  0  0  0  0  0  0  0  0  0
   -3.8488    6.2201   -7.0663 C   0  0  0  0  0  0  0  0  0  0  0  0
   -3.6353    5.6595   -8.3117 C   0  0  0  0  0  0  0  0  0  0  0  0
   -3.7302    8.1475   -5.4737 C   0  0  1  0  0  0  0  0  0  0  0  0
   -3.0897    9.0211   -5.3525 H   0  0  0  0  0  0  0  0  0  0  0  0
   -5.1961    8.5693   -5.3543 C   0  0  0  0  0  0  0  0  0  0  0  0
   -5.4738    9.6976   -6.3139 C   0  0  0  0  0  0  0  0  0  0  0  0
   -4.5670   10.2000   -6.9345 O   0  0  0  0  0  0  0  0  0  0  0  0
   -3.4184    7.1652   -4.4325 N   0  0  0  0  0  0  0  0  0  0  0  0
   -3.1426    7.5763   -3.1790 C   0  0  0  0  0  0  0  0  0  0  0  0
   -3.0647    8.7613   -2.9328 O   0  0  0  0  0  0  0  0  0  0  0  0
   -2.9311    6.5636   -2.0832 C   0  0  2  0  0  0  0  0  0  0  0  0
   -2.6355    7.2891   -0.7685 C   0  0  0  0  0  0  0  0  0  0  0  0
   -2.4553    6.2578    0.3498 C   0  0  0  0  0  0  0  0  0  0  0  0
   -1.4201    5.2970   -0.0552 N   0  0  0  0  0  0  0  0  0  0  0  0
   -1.5575    4.6139   -1.3487 C   0  0  0  0  0  0  0  0  0  0  0  0
   -1.7506    5.6595   -2.4455 C   0  0  0  0  0  0  0  0  0  0  0  0
   -0.1196    4.9950    0.9245 S   0  0  0  0  0  0  0  0  0  0  0  0
    0.0385    6.1382    1.7535 O   0  0  0  0  0  0  0  0  0  0  0  0
    0.9198    4.5145    0.0831 O   0  0  0  0  0  0  0  0  0  0  0  0
   -0.5656    3.6611    1.9859 C   0  0  0  0  0  0  0  0  0  0  0  0
   -1.1821    3.7282    3.2564 C   0  0  0  0  0  0  0  0  0  0  0  0
   -1.3126    2.4997    3.6668 N   0  0  0  0  0  0  0  0  0  0  0  0
   -0.8836    1.7116    2.8563 O   0  0  0  0  0  0  0  0  0  0  0  0
   -0.3990    2.3339    1.7725 C   0  0  0  0  0  0  0  0  0  0  0  0
    0.2157    1.6853    0.5590 C   0  0  0  0  0  0  0  0  0  0  0  0
   -1.5993    4.9751    3.9927 C   0  0  0  0  0  0  0  0  0  0  0  0
   -1.8292    5.3384  -10.6959 H   0  0  0  0  0  0  0  0  0  0  0  0
   -3.5753    5.0379  -10.8671 H   0  0  0  0  0  0  0  0  0  0  0  0
   -2.8761    6.5721  -11.4378 H   0  0  0  0  0  0  0  0  0  0  0  0
   -2.2423    8.3098   -9.8653 H   0  0  0  0  0  0  0  0  0  0  0  0
   -2.6312    9.3113   -7.6496 H   0  0  0  0  0  0  0  0  0  0  0  0
   -4.2973    5.6322   -6.2791 H   0  0  0  0  0  0  0  0  0  0  0  0
   -3.9169    4.6336   -8.4975 H   0  0  0  0  0  0  0  0  0  0  0  0
   -5.8386    7.7221   -5.5939 H   0  0  0  0  0  0  0  0  0  0  0  0
   -5.3969    8.9010   -4.3356 H   0  0  0  0  0  0  0  0  0  0  0  0
   -3.4105    6.2188   -4.6454 H   0  0  0  0  0  0  0  0  0  0  0  0
   -3.8304    5.9582   -1.9697 H   0  0  0  0  0  0  0  0  0  0  0  0
   -3.4665    7.9504   -0.5232 H   0  0  0  0  0  0  0  0  0  0  0  0
   -1.7224    7.8750   -0.8737 H   0  0  0  0  0  0  0  0  0  0  0  0
   -3.3956    5.7326    0.5176 H   0  0  0  0  0  0  0  0  0  0  0  0
   -2.1475    6.7621    1.2658 H   0  0  0  0  0  0  0  0  0  0  0  0
   -0.6575    4.0339   -1.5531 H   0  0  0  0  0  0  0  0  0  0  0  0
   -2.4231    3.9520   -1.3222 H   0  0  0  0  0  0  0  0  0  0  0  0
   -1.9518    5.1609   -3.3937 H   0  0  0  0  0  0  0  0  0  0  0  0
   -0.8459    6.2608   -2.5349 H   0  0  0  0  0  0  0  0  0  0  0  0
    0.2130    0.6027    0.6851 H   0  0  0  0  0  0  0  0  0  0  0  0
    1.2413    2.0348    0.4406 H   0  0  0  0  0  0  0  0  0  0  0  0
   -0.3627    1.9494   -0.3263 H   0  0  0  0  0  0  0  0  0  0  0  0
   -0.7736    5.3247    4.6124 H   0  0  0  0  0  0  0  0  0  0  0  0
   -1.8669    5.7493    3.2735 H   0  0  0  0  0  0  0  0  0  0  0  0
   -2.4593    4.7534    4.6246 H   0  0  0  0  0  0  0  0  0  0  0  0
   -6.7287   10.1445   -6.4792 O   0  0  0  0  0  1  0  0  0  0  0  0
  1  2  1  0  0  0  0
  1 32  1  0  0  0  0
  1 33  1  0  0  0  0
  1 34  1  0  0  0  0
  2  7  2  0  0  0  0
  2  3  1  0  0  0  0
  3  4  2  0  0  0  0
  3 35  1  0  0  0  0
  4  5  1  0  0  0  0
  4 36  1  0  0  0  0
  5  6  2  0  0  0  0
  5  8  1  0  0  0  0
  6  7  1  0  0  0  0
  6 37  1  0  0  0  0
  7 38  1  0  0  0  0
  8  9  1  1  0  0  0
  8 10  1  0  0  0  0
  8 13  1  0  0  0  0
 10 11  1  0  0  0  0
 10 39  1  0  0  0  0
 10 40  1  0  0  0  0
 11 12  2  0  0  0  0
 11 57  1  0  0  0  0
 13 14  1  0  0  0  0
 13 41  1  0  0  0  0
 14 15  2  0  0  0  0
 14 16  1  0  0  0  0
 16 21  1  0  0  0  0
 16 17  1  0  0  0  0
 16 42  1  1  0  0  0
 17 18  1  0  0  0  0
 17 43  1  0  0  0  0
 17 44  1  0  0  0  0
 18 19  1  0  0  0  0
 18 45  1  0  0  0  0
 18 46  1  0  0  0  0
 19 20  1  0  0  0  0
 19 22  1  0  0  0  0
 20 21  1  0  0  0  0
 20 47  1  0  0  0  0
 20 48  1  0  0  0  0
 21 49  1  0  0  0  0
 21 50  1  0  0  0  0
 22 23  2  0  0  0  0
 22 24  2  0  0  0  0
 22 25  1  0  0  0  0
 25 29  2  0  0  0  0
 25 26  1  0  0  0  0
 26 27  2  0  0  0  0
 26 31  1  0  0  0  0
 27 28  1  0  0  0  0
 28 29  1  0  0  0  0
 29 30  1  0  0  0  0
 30 51  1  0  0  0  0
 30 52  1  0  0  0  0
 30 53  1  0  0  0  0
 31 54  1  0  0  0  0
 31 55  1  0  0  0  0
 31 56  1  0  0  0  0
M  END
$$$$
ZINC44682016
 OpenBabel01252620473D

 36 36  0  0  1  0  0  0  0  0999 V2000
   -0.0187    1.5258    0.0104 C   0  0  0  0  0  0  0  0  0  0  0  0
    1.4167    2.0553   -0.0004 C   0  0  0  0  0  0  0  0  0  0  0  0
    2.1567    1.5485    1.2391 C   0  0  1  0  0  0  0  0  0  0  0  0
    1.6465    1.9000    2.1359 H   0  0  0  0  0  0  0  0  0  0  0  0
    2.1775    0.0187    1.2307 C   0  0  2  0  0  0  0  0  0  0  0  0
    2.6876   -0.3328    0.3339 H   0  0  0  0  0  0  0  0  0  0  0  0
    0.7421   -0.5109    1.2415 C   0  0  0  0  0  0  0  0  0  0  0  0
    0.0021   -0.0041    0.0020 C   0  0  2  0  0  0  0  0  0  0  0  0
   -1.0205   -0.3814    0.0098 H   0  0  0  0  0  0  0  0  0  0  0  0
    0.7182   -0.4975   -1.2568 C   0  0  0  0  0  0  0  0  0  0  0  0
   -0.2391   -0.0225   -2.7225 S   0  0  0  0  0  0  0  0  0  0  0  0
    0.4571   -0.4998   -3.9072 O   0  0  0  0  0  0  0  0  0  0  0  0
   -1.5579   -0.6298   -2.6333 O   0  0  0  0  0  0  0  0  0  0  0  0
   -0.3525    1.4274   -2.7539 O   0  0  0  0  0  1  0  0  0  0  0  0
    2.9174   -0.4882    2.4702 C   0  0  0  0  0  0  0  0  0  0  0  0
    3.0714   -2.2937    2.3864 S   0  0  0  0  0  0  0  0  0  0  0  0
    3.7766   -2.7556    3.5719 O   0  0  0  0  0  0  0  0  0  0  0  0
    1.7377   -2.8721    2.3353 O   0  0  0  0  0  0  0  0  0  0  0  0
    3.8183   -2.6414    1.1875 O   0  0  0  0  0  1  0  0  0  0  0  0
    3.5921    2.0781    1.2282 C   0  0  0  0  0  0  0  0  0  0  0  0
    3.5712    3.8850    1.3872 S   0  0  0  0  0  0  0  0  0  0  0  0
    4.9430    4.3687    1.3749 O   0  0  0  0  0  0  0  0  0  0  0  0
    2.8298    4.4417    0.2662 O   0  0  0  0  0  0  0  0  0  0  0  0
    2.9246    4.2337    2.6427 O   0  0  0  0  0  1  0  0  0  0  0  0
   -0.5289    1.8773    0.9072 H   0  0  0  0  0  0  0  0  0  0  0  0
   -0.5459    1.8868   -0.8726 H   0  0  0  0  0  0  0  0  0  0  0  0
    1.9269    1.7038   -0.8972 H   0  0  0  0  0  0  0  0  0  0  0  0
    1.4019    3.1452    0.0056 H   0  0  0  0  0  0  0  0  0  0  0  0
    0.7568   -1.6008    1.2356 H   0  0  0  0  0  0  0  0  0  0  0  0
    0.2319   -0.1594    2.1383 H   0  0  0  0  0  0  0  0  0  0  0  0
    1.7103   -0.0491   -1.3098 H   0  0  0  0  0  0  0  0  0  0  0  0
    0.8116   -1.5829   -1.2198 H   0  0  0  0  0  0  0  0  0  0  0  0
    3.9104   -0.0402    2.5090 H   0  0  0  0  0  0  0  0  0  0  0  0
    2.3592   -0.2123    3.3648 H   0  0  0  0  0  0  0  0  0  0  0  0
    4.1450    1.6463    2.0625 H   0  0  0  0  0  0  0  0  0  0  0  0
    4.0744    1.8014    0.2907 H   0  0  0  0  0  0  0  0  0  0  0  0
  1  8  1  0  0  0  0
  1  2  1  0  0  0  0
  1 25  1  0  0  0  0
  1 26  1  0  0  0  0
  2  3  1  0  0  0  0
  2 27  1  0  0  0  0
  2 28  1  0  0  0  0
  3  4  1  1  0  0  0
  3  5  1  0  0  0  0
  3 20  1  0  0  0  0
  5  6  1  6  0  0  0
  5  7  1  0  0  0  0
  5 15  1  0  0  0  0
  7  8  1  0  0  0  0
  7 29  1  0  0  0  0
  7 30  1  0  0  0  0
  8  9  1  1  0  0  0
  8 10  1  0  0  0  0
 10 11  1  0  0  0  0
 10 31  1  0  0  0  0
 10 32  1  0  0  0  0
 11 12  2  0  0  0  0
 11 13  2  0  0  0  0
 11 14  1  0  0  0  0
 15 16  1  0  0  0  0
 15 33  1  0  0  0  0
 15 34  1  0  0  0  0
 16 17  2  0  0  0  0
 16 18  2  0  0  0  0
 16 19  1  0  0  0  0
 20 21  1  0  0  0  0
 20 35  1  0  0  0  0
 20 36  1  0  0  0  0
 21 22  2  0  0  0  0
 21 23  2  0  0  0  0
 21 24  1  0  0  0  0
M  END
$$$$
ZINC13278967
 OpenBabel01252620473D

 38 39  0  0  0  0  0  0  0  0999 V2000
   -0.9664    4.4338   -0.6632 C   0  0  0  0  0  0  0  0  0  0  0  0
   -1.4218    3.3896   -1.6498 C   0  0  0  0  0  0  0  0  0  0  0  0
   -2.2392    3.7504   -2.7065 C   0  0  0  0  0  0  0  0  0  0  0  0
   -2.6597    2.7998   -3.6131 C   0  0  0  0  0  0  0  0  0  0  0  0
   -2.2586    1.4707   -3.4628 C   0  0  0  0  0  0  0  0  0  0  0  0
   -1.4289    1.1147   -2.3978 C   0  0  0  0  0  0  0  0  0  0  0  0
   -1.0203    2.0747   -1.4951 C   0  0  0  0  0  0  0  0  0  0  0  0
    0.0210    1.6264   -0.1463 S   0  0  0  0  0  0  0  0  0  0  0  0
    0.2490    0.2282   -0.2565 O   0  0  0  0  0  0  0  0  0  0  0  0
    1.0818    2.5715   -0.1207 O   0  0  0  0  0  0  0  0  0  0  0  0
   -0.8509    1.8558    1.2427 N   0  0  0  0  0  0  0  0  0  0  0  0
   -2.0419    1.1609    1.4402 C   0  0  0  0  0  0  0  0  0  0  0  0
   -2.1703   -0.1422    0.9744 C   0  0  0  0  0  0  0  0  0  0  0  0
   -3.3459   -0.8337    1.1676 C   0  0  0  0  0  0  0  0  0  0  0  0
   -4.4142   -0.2260    1.8340 C   0  0  0  0  0  0  0  0  0  0  0  0
   -4.2878    1.0851    2.3038 C   0  0  0  0  0  0  0  0  0  0  0  0
   -3.1044    1.7734    2.1118 C   0  0  0  0  0  0  0  0  0  0  0  0
   -2.9369    3.4230    2.7080 S   0  0  0  0  0  0  0  0  0  0  0  0
   -4.5367    3.7719    3.4888 C   0  0  0  0  0  0  0  0  0  0  0  0
   -5.6720   -0.9660    2.0407 C   0  0  0  0  0  0  0  0  0  0  0  0
   -6.6000   -0.4370    2.6201 O   0  0  0  0  0  0  0  0  0  0  0  0
   -2.7049    0.4471   -4.4299 C   0  0  0  0  0  0  0  0  0  0  0  0
   -2.3545   -0.7083   -4.2965 O   0  0  0  0  0  0  0  0  0  0  0  0
   -0.0628    4.9162   -1.0359 H   0  0  0  0  0  0  0  0  0  0  0  0
   -1.7507    5.1801   -0.5361 H   0  0  0  0  0  0  0  0  0  0  0  0
   -0.7564    3.9604    0.2959 H   0  0  0  0  0  0  0  0  0  0  0  0
   -2.5484    4.7788   -2.8218 H   0  0  0  0  0  0  0  0  0  0  0  0
   -3.2973    3.0828   -4.4376 H   0  0  0  0  0  0  0  0  0  0  0  0
   -1.1109    0.0895   -2.2787 H   0  0  0  0  0  0  0  0  0  0  0  0
   -0.5323    2.4741    1.9188 H   0  0  0  0  0  0  0  0  0  0  0  0
   -1.3462   -0.6140    0.4599 H   0  0  0  0  0  0  0  0  0  0  0  0
   -3.4422   -1.8461    0.8044 H   0  0  0  0  0  0  0  0  0  0  0  0
   -5.1110    1.5573    2.8193 H   0  0  0  0  0  0  0  0  0  0  0  0
   -5.3303    3.6819    2.7471 H   0  0  0  0  0  0  0  0  0  0  0  0
   -4.7105    3.0595    4.2952 H   0  0  0  0  0  0  0  0  0  0  0  0
   -4.5305    4.7841    3.8932 H   0  0  0  0  0  0  0  0  0  0  0  0
   -5.7929   -2.2293    1.5873 O   0  0  0  0  0  1  0  0  0  0  0  0
   -3.5007    0.7949   -5.4597 O   0  0  0  0  0  1  0  0  0  0  0  0
  1  2  1  0  0  0  0
  1 24  1  0  0  0  0
  1 25  1  0  0  0  0
  1 26  1  0  0  0  0
  2  7  2  0  0  0  0
  2  3  1  0  0  0  0
  3  4  2  0  0  0  0
  3 27  1  0  0  0  0
  4  5  1  0  0  0  0
  4 28  1  0  0  0  0
  5  6  2  0  0  0  0
  5 22  1  0  0  0  0
  6  7  1  0  0  0  0
  6 29  1  0  0  0  0
  7  8  1  0  0  0  0
  8  9  2  0  0  0  0
  8 10  2  0  0  0  0
  8 11  1  0  0  0  0
 11 12  1  0  0  0  0
 11 30  1  0  0  0  0
 12 17  2  0  0  0  0
 12 13  1  0  0  0  0
 13 14  2  0  0  0  0
 13 31  1  0  0  0  0
 14 15  1  0  0  0  0
 14 32  1  0  0  0  0
 15 16  2  0  0  0  0
 15 20  1  0  0  0  0
 16 17  1  0  0  0  0
 16 33  1  0  0  0  0
 17 18  1  0  0  0  0
 18 19  1  0  0  0  0
 19 34  1  0  0  0  0
 19 35  1  0  0  0  0
 19 36  1  0  0  0  0
 20 21  2  0  0  0  0
 20 37  1  0  0  0  0
 22 23  2  0  0  0  0
 22 38  1  0  0  0  0
M  END
$$$$
ZINC35252633
 OpenBabel01252620473D

 34 34  0  0  0  0  0  0  0  0999 V2000
   -0.0802    1.6847   -1.1586 C   0  0  0  0  0  0  0  0  0  0  0  0
   -0.2687    0.3000   -0.5356 C   0  0  0  0  0  0  0  0  0  0  0  0
    0.2424    0.3157    0.9065 C   0  0  0  0  0  0  0  0  0  0  0  0
   -1.7319   -0.0606   -0.5460 C   0  0  0  0  0  0  0  0  0  0  0  0
   -2.4137    0.1531    0.4283 O   0  0  0  0  0  0  0  0  0  0  0  0
   -2.2776   -0.6191   -1.6378 O   0  0  0  0  0  0  0  0  0  0  0  0
   -3.6700   -0.9350   -1.5778 C   0  0  0  0  0  0  0  0  0  0  0  0
    0.4839   -0.6903   -1.3096 N   0  0  0  0  0  0  0  0  0  0  0  0
    2.0843   -0.4337   -1.6491 S   0  0  0  0  0  0  0  0  0  0  0  0
    2.6910    0.0022   -0.4403 O   0  0  0  0  0  0  0  0  0  0  0  0
    2.5373   -1.5780   -2.3595 O   0  0  0  0  0  0  0  0  0  0  0  0
    2.1678    0.9217   -2.7718 C   0  0  0  0  0  0  0  0  0  0  0  0
    1.9231    0.7181   -4.1191 C   0  0  0  0  0  0  0  0  0  0  0  0
    1.9863    1.7755   -5.0083 C   0  0  0  0  0  0  0  0  0  0  0  0
    2.2945    3.0436   -4.5570 C   0  0  0  0  0  0  0  0  0  0  0  0
    2.5423    3.2564   -3.1976 C   0  0  0  0  0  0  0  0  0  0  0  0
    2.4712    2.1830   -2.3052 C   0  0  0  0  0  0  0  0  0  0  0  0
    2.8721    4.6074   -2.7071 C   0  0  0  0  0  0  0  0  0  0  0  0
    3.0883    4.7901   -1.5173 O   0  0  0  0  0  0  0  0  0  0  0  0
    2.9294    5.5452   -3.4900 O   0  0  0  0  0  1  0  0  0  0  0  0
    2.3816    4.4881   -5.7743 Br  0  0  0  0  0  0  0  0  0  0  0  0
    0.9363    2.0315   -0.9724 H   0  0  0  0  0  0  0  0  0  0  0  0
   -0.2530    1.6262   -2.2332 H   0  0  0  0  0  0  0  0  0  0  0  0
   -0.7894    2.3828   -0.7139 H   0  0  0  0  0  0  0  0  0  0  0  0
   -0.4374    0.9002    1.5265 H   0  0  0  0  0  0  0  0  0  0  0  0
    0.2928   -0.7051    1.2852 H   0  0  0  0  0  0  0  0  0  0  0  0
    1.2358    0.7633    0.9350 H   0  0  0  0  0  0  0  0  0  0  0  0
   -4.2417   -0.0245   -1.3977 H   0  0  0  0  0  0  0  0  0  0  0  0
   -3.9828   -1.3795   -2.5226 H   0  0  0  0  0  0  0  0  0  0  0  0
   -3.8476   -1.6418   -0.7672 H   0  0  0  0  0  0  0  0  0  0  0  0
    0.0447   -1.4963   -1.6233 H   0  0  0  0  0  0  0  0  0  0  0  0
    1.6820   -0.2717   -4.4777 H   0  0  0  0  0  0  0  0  0  0  0  0
    1.7945    1.6089   -6.0580 H   0  0  0  0  0  0  0  0  0  0  0  0
    2.6574    2.3406   -1.2531 H   0  0  0  0  0  0  0  0  0  0  0  0
  1  2  1  0  0  0  0
  1 22  1  0  0  0  0
  1 23  1  0  0  0  0
  1 24  1  0  0  0  0
  2  3  1  0  0  0  0
  2  4  1  0  0  0  0
  2  8  1  0  0  0  0
  3 25  1  0  0  0  0
  3 26  1  0  0  0  0
  3 27  1  0  0  0  0
  4  5  2  0  0  0  0
  4  6  1  0  0  0  0
  6  7  1  0  0  0  0
  7 28  1  0  0  0  0
  7 29  1  0  0  0  0
  7 30  1  0  0  0  0
  8  9  1  0  0  0  0
  8 31  1  0  0  0  0
  9 10  2  0  0  0  0
  9 11  2  0  0  0  0
  9 12  1  0  0  0  0
 12 17  2  0  0  0  0
 12 13  1  0  0  0  0
 13 14  2  0  0  0  0
 13 32  1  0  0  0  0
 14 15  1  0  0  0  0
 14 33  1  0  0  0  0
 15 16  2  0  0  0  0
 15 21  1  0  0  0  0
 16 17  1  0  0  0  0
 16 18  1  0  0  0  0
 17 34  1  0  0  0  0
 18 19  2  0  0  0  0
 18 20  1  0  0  0  0
M  END
$$$$
ZINC00892643
 OpenBabel01252620473D

 45 47  0  0  0  0  0  0  0  0999 V2000
    0.7226    1.4312   -0.0348 C   0  0  0  0  0  0  0  0  0  0  0  0
    0.5300   -0.0634   -0.0325 C   0  0  0  0  0  0  0  0  0  0  0  0
    0.3882   -0.7544   -1.2259 C   0  0  0  0  0  0  0  0  0  0  0  0
    0.2135   -2.1284   -1.1792 C   0  0  0  0  0  0  0  0  0  0  0  0
    0.1875   -2.7361   -0.0045 N   0  0  0  0  0  0  0  0  0  0  0  0
    0.3260   -2.0462    1.1180 C   0  0  0  0  0  0  0  0  0  0  0  0
    0.4996   -0.7326    1.1080 N   0  0  0  0  0  0  0  0  0  0  0  0
    0.2934   -2.7141    2.3299 N   0  0  0  0  0  2  0  0  0  0  0  0
    0.0832   -4.3563    2.3648 S   0  0  0  0  0  0  0  0  0  0  0  0
   -1.2276   -4.6084    1.8777 O   0  0  0  0  0  0  0  0  0  0  0  0
    1.2402   -4.9266    1.7687 O   0  0  0  0  0  0  0  0  0  0  0  0
    0.0947   -4.8471    4.0570 C   0  0  0  0  0  0  0  0  0  0  0  0
    1.2874   -5.1869    4.6688 C   0  0  0  0  0  0  0  0  0  0  0  0
    1.2997   -5.5721    5.9950 C   0  0  0  0  0  0  0  0  0  0  0  0
    0.1128   -5.6174    6.7144 C   0  0  0  0  0  0  0  0  0  0  0  0
   -1.0833   -5.2751    6.0973 C   0  0  0  0  0  0  0  0  0  0  0  0
   -1.0883   -4.8862    4.7721 C   0  0  0  0  0  0  0  0  0  0  0  0
    0.1218   -6.0076    8.0582 N   0  0  0  0  0  0  0  0  0  0  0  0
    1.1771   -5.7061    8.8403 C   0  0  0  0  0  0  0  0  0  0  0  0
    2.0751   -5.0152    8.4074 O   0  0  0  0  0  0  0  0  0  0  0  0
    1.2415   -6.2276   10.2528 C   0  0  0  0  0  0  0  0  0  0  0  0
    2.4468   -5.7752   10.8730 O   0  0  0  0  0  0  0  0  0  0  0  0
    2.6610   -6.1598   12.1588 C   0  0  0  0  0  0  0  0  0  0  0  0
    1.7330   -6.9609   12.8082 C   0  0  0  0  0  0  0  0  0  0  0  0
    1.9532   -7.3509   14.1150 C   0  0  0  0  0  0  0  0  0  0  0  0
    3.0972   -6.9431   14.7759 C   0  0  0  0  0  0  0  0  0  0  0  0
    4.0234   -6.1444   14.1311 C   0  0  0  0  0  0  0  0  0  0  0  0
    3.8108   -5.7568   12.8223 C   0  0  0  0  0  0  0  0  0  0  0  0
    1.7871    1.6603   -0.0854 H   0  0  0  0  0  0  0  0  0  0  0  0
    0.2169    1.8613   -0.8994 H   0  0  0  0  0  0  0  0  0  0  0  0
    0.3031    1.8530    0.8785 H   0  0  0  0  0  0  0  0  0  0  0  0
    0.4129   -0.2332   -2.1715 H   0  0  0  0  0  0  0  0  0  0  0  0
    0.0997   -2.6961   -2.0909 H   0  0  0  0  0  0  0  0  0  0  0  0
    2.2102   -5.1514    4.1087 H   0  0  0  0  0  0  0  0  0  0  0  0
    2.2315   -5.8380    6.4721 H   0  0  0  0  0  0  0  0  0  0  0  0
   -2.0081   -5.3098    6.6540 H   0  0  0  0  0  0  0  0  0  0  0  0
   -2.0175   -4.6160    4.2927 H   0  0  0  0  0  0  0  0  0  0  0  0
   -0.6315   -6.4951    8.4267 H   0  0  0  0  0  0  0  0  0  0  0  0
    0.3833   -5.8599   10.8153 H   0  0  0  0  0  0  0  0  0  0  0  0
    1.2269   -7.3174   10.2388 H   0  0  0  0  0  0  0  0  0  0  0  0
    0.8389   -7.2791   12.2926 H   0  0  0  0  0  0  0  0  0  0  0  0
    1.2310   -7.9745   14.6209 H   0  0  0  0  0  0  0  0  0  0  0  0
    3.2674   -7.2488   15.7977 H   0  0  0  0  0  0  0  0  0  0  0  0
    4.9160   -5.8269   14.6496 H   0  0  0  0  0  0  0  0  0  0  0  0
    4.5367   -5.1365   12.3176 H   0  0  0  0  0  0  0  0  0  0  0  0
  1  2  1  0  0  0  0
  1 29  1  0  0  0  0
  1 30  1  0  0  0  0
  1 31  1  0  0  0  0
  2  7  2  0  0  0  0
  2  3  1  0  0  0  0
  3  4  2  0  0  0  0
  3 32  1  0  0  0  0
  4  5  1  0  0  0  0
  4 33  1  0  0  0  0
  5  6  2  0  0  0  0
  6  7  1  0  0  0  0
  6  8  1  0  0  0  0
  8  9  1  0  0  0  0
  9 10  2  0  0  0  0
  9 11  2  0  0  0  0
  9 12  1  0  0  0  0
 12 17  2  0  0  0  0
 12 13  1  0  0  0  0
 13 14  2  0  0  0  0
 13 34  1  0  0  0  0
 14 15  1  0  0  0  0
 14 35  1  0  0  0  0
 15 16  2  0  0  0  0
 15 18  1  0  0  0  0
 16 17  1  0  0  0  0
 16 36  1  0  0  0  0
 17 37  1  0  0  0  0
 18 19  1  0  0  0  0
 18 38  1  0  0  0  0
 19 20  2  0  0  0  0
 19 21  1  0  0  0  0
 21 22  1  0  0  0  0
 21 39  1  0  0  0  0
 21 40  1  0  0  0  0
 22 23  1  0  0  0  0
 23 28  2  0  0  0  0
 23 24  1  0  0  0  0
 24 25  2  0  0  0  0
 24 41  1  0  0  0  0
 25 26  1  0  0  0  0
 25 42  1  0  0  0  0
 26 27  2  0  0  0  0
 26 43  1  0  0  0  0
 27 28  1  0  0  0  0
 27 44  1  0  0  0  0
 28 45  1  0  0  0  0
M  END
$$$$
ZINC03576327
 OpenBabel01252620473D

 43 44  0  0  0  0  0  0  0  0999 V2000
   -0.0187    1.5258    0.0104 C   0  0  0  0  0  0  0  0  0  0  0  0
    0.0021   -0.0041    0.0020 C   0  0  0  0  0  0  0  0  0  0  0  0
    0.6932   -0.4774    1.1597 O   0  0  0  0  0  0  0  0  0  0  0  0
    0.8021   -1.8252    1.3058 C   0  0  0  0  0  0  0  0  0  0  0  0
    0.2610   -2.6695    0.3536 C   0  0  0  0  0  0  0  0  0  0  0  0
    0.3744   -4.0533    0.5064 C   0  0  0  0  0  0  0  0  0  0  0  0
    1.0339   -4.5780    1.6205 C   0  0  0  0  0  0  0  0  0  0  0  0
    1.5714   -3.7292    2.5666 C   0  0  0  0  0  0  0  0  0  0  0  0
    1.4633   -2.3544    2.4111 C   0  0  0  0  0  0  0  0  0  0  0  0
    1.9998   -1.5220    3.3432 O   0  0  0  0  0  0  0  0  0  0  0  0
    2.4639   -4.4409    4.0742 Br  0  0  0  0  0  0  0  0  0  0  0  0
   -0.2012   -4.9584   -0.5058 C   0  0  0  0  0  0  0  0  0  0  0  0
   -0.0950   -6.2435   -0.3624 N   0  0  0  0  0  0  0  0  0  0  0  0
   -0.6419   -7.1032   -1.3240 N   0  0  0  0  0  2  0  0  0  0  0  0
   -0.5063   -8.7435   -1.1409 S   0  0  0  0  0  0  0  0  0  0  0  0
    0.8764   -9.0517   -1.2525 O   0  0  0  0  0  0  0  0  0  0  0  0
   -1.2739   -9.0892    0.0039 O   0  0  0  0  0  0  0  0  0  0  0  0
   -1.3018   -9.4897   -2.5247 C   0  0  0  0  0  0  0  0  0  0  0  0
   -0.5639  -10.2291   -3.4304 C   0  0  0  0  0  0  0  0  0  0  0  0
   -1.1880  -10.8144   -4.5159 C   0  0  0  0  0  0  0  0  0  0  0  0
   -2.5502  -10.6608   -4.6958 C   0  0  0  0  0  0  0  0  0  0  0  0
   -3.2880   -9.9224   -3.7899 C   0  0  0  0  0  0  0  0  0  0  0  0
   -2.6644   -9.3405   -2.7018 C   0  0  0  0  0  0  0  0  0  0  0  0
   -3.4698   -8.5397   -1.7112 C   0  0  0  0  0  0  0  0  0  0  0  0
   -0.3835  -11.6196   -5.5036 C   0  0  0  0  0  0  0  0  0  0  0  0
    1.0039    1.9031    0.0027 H   0  0  0  0  0  0  0  0  0  0  0  0
   -0.5459    1.8868   -0.8726 H   0  0  0  0  0  0  0  0  0  0  0  0
   -0.5289    1.8773    0.9072 H   0  0  0  0  0  0  0  0  0  0  0  0
   -1.0205   -0.3814    0.0098 H   0  0  0  0  0  0  0  0  0  0  0  0
    0.5123   -0.3556   -0.8948 H   0  0  0  0  0  0  0  0  0  0  0  0
   -0.2484   -2.2599   -0.5061 H   0  0  0  0  0  0  0  0  0  0  0  0
    1.1229   -5.6475    1.7415 H   0  0  0  0  0  0  0  0  0  0  0  0
    1.3943   -1.2938    4.0618 H   0  0  0  0  0  0  0  0  0  0  0  0
   -0.7112   -4.5514   -1.3665 H   0  0  0  0  0  0  0  0  0  0  0  0
    0.5001  -10.3491   -3.2898 H   0  0  0  0  0  0  0  0  0  0  0  0
   -3.0377  -11.1176   -5.5444 H   0  0  0  0  0  0  0  0  0  0  0  0
   -4.3520   -9.8021   -3.9307 H   0  0  0  0  0  0  0  0  0  0  0  0
   -3.4989   -7.4964   -2.0256 H   0  0  0  0  0  0  0  0  0  0  0  0
   -4.4850   -8.9338   -1.6652 H   0  0  0  0  0  0  0  0  0  0  0  0
   -3.0078   -8.6096   -0.7264 H   0  0  0  0  0  0  0  0  0  0  0  0
   -0.3581  -12.6624   -5.1872 H   0  0  0  0  0  0  0  0  0  0  0  0
   -0.8435  -11.5501   -6.4893 H   0  0  0  0  0  0  0  0  0  0  0  0
    0.6330  -11.2288   -5.5486 H   0  0  0  0  0  0  0  0  0  0  0  0
  1  2  1  0  0  0  0
  1 26  1  0  0  0  0
  1 27  1  0  0  0  0
  1 28  1  0  0  0  0
  2  3  1  0  0  0  0
  2 29  1  0  0  0  0
  2 30  1  0  0  0  0
  3  4  1  0  0  0  0
  4  9  2  0  0  0  0
  4  5  1  0  0  0  0
  5  6  2  0  0  0  0
  5 31  1  0  0  0  0
  6  7  1  0  0  0  0
  6 12  1  0  0  0  0
  7  8  2  0  0  0  0
  7 32  1  0  0  0  0
  8  9  1  0  0  0  0
  8 11  1  0  0  0  0
  9 10  1  0  0  0  0
 10 33  1  0  0  0  0
 12 13  2  0  0  0  0
 12 34  1  0  0  0  0
 13 14  1  0  0  0  0
 14 15  1  0  0  0  0
 15 16  2  0  0  0  0
 15 17  2  0  0  0  0
 15 18  1  0  0  0  0
 18 23  2  0  0  0  0
 18 19  1  0  0  0  0
 19 20  2  0  0  0  0
 19 35  1  0  0  0  0
 20 21  1  0  0  0  0
 20 25  1  0  0  0  0
 21 22  2  0  0  0  0
 21 36  1  0  0  0  0
 22 23  1  0  0  0  0
 22 37  1  0  0  0  0
 23 24  1  0  0  0  0
 24 38  1  0  0  0  0
 24 39  1  0  0  0  0
 24 40  1  0  0  0  0
 25 41  1  0  0  0  0
 25 42  1  0  0  0  0
 25 43  1  0  0  0  0
M  END
$$$$
ZINC43428971
 OpenBabel01252620473D

 35 37  0  0  1  0  0  0  0  0999 V2000
   -3.5417   -0.4033    0.9695 C   0  0  0  0  0  0  0  0  0  0  0  0
   -4.7398    0.2927    0.9535 C   0  0  0  0  0  0  0  0  0  0  0  0
   -4.9252    1.3042    0.0137 C   0  0  0  0  0  0  0  0  0  0  0  0
   -3.9714    1.6048   -0.8601 N   0  0  0  0  0  0  0  0  0  0  0  0
   -2.8226    0.9685   -0.8770 C   0  0  0  0  0  0  0  0  0  0  0  0
   -2.5614   -0.0589    0.0347 C   0  0  0  0  0  0  0  0  0  0  0  0
   -1.2639   -0.7719    0.0105 C   0  0  0  0  0  0  0  0  0  0  0  0
   -0.2281   -0.1452   -0.0943 O   0  0  0  0  0  0  0  0  0  0  0  0
   -1.2318   -2.1160    0.1047 N   0  0  0  0  0  0  0  0  0  0  0  0
    0.0559   -2.8190    0.2051 C   0  0  0  0  0  0  0  0  0  0  0  0
    0.0473   -3.9439   -0.8398 C   0  0  0  0  0  0  0  0  0  0  0  0
   -1.0993   -4.7617   -0.6122 O   0  0  0  0  0  0  0  0  0  0  0  0
   -2.3619   -4.1216   -0.8022 C   0  0  2  0  0  0  0  0  0  0  0  0
   -2.5320   -3.8809   -1.8516 H   0  0  0  0  0  0  0  0  0  0  0  0
   -2.4732   -2.8793    0.1135 C   0  0  1  0  0  0  0  0  0  0  0  0
   -3.3052   -2.2497   -0.2020 H   0  0  0  0  0  0  0  0  0  0  0  0
   -2.7394   -3.4815    1.5085 C   0  0  0  0  0  0  0  0  0  0  0  0
   -3.6813   -4.6722    1.2257 C   0  0  0  0  0  0  0  0  0  0  0  0
   -3.4513   -5.0744   -0.2536 C   0  0  0  0  0  0  0  0  0  0  0  0
   -6.2030    2.0538   -0.0116 C   0  0  0  0  0  0  0  0  0  0  0  0
   -7.0861    1.7832    0.7888 O   0  0  0  0  0  0  0  0  0  0  0  0
   -6.3739    2.9426   -0.8328 O   0  0  0  0  0  1  0  0  0  0  0  0
   -3.3680   -1.1894    1.6894 H   0  0  0  0  0  0  0  0  0  0  0  0
   -5.5203    0.0538    1.6607 H   0  0  0  0  0  0  0  0  0  0  0  0
   -2.0715    1.2416   -1.6034 H   0  0  0  0  0  0  0  0  0  0  0  0
    0.8728   -2.1275   -0.0016 H   0  0  0  0  0  0  0  0  0  0  0  0
    0.1706   -3.2414    1.2034 H   0  0  0  0  0  0  0  0  0  0  0  0
   -0.0009   -3.5148   -1.8406 H   0  0  0  0  0  0  0  0  0  0  0  0
    0.9517   -4.5441   -0.7404 H   0  0  0  0  0  0  0  0  0  0  0  0
   -1.8094   -3.8282    1.9591 H   0  0  0  0  0  0  0  0  0  0  0  0
   -3.2288   -2.7514    2.1531 H   0  0  0  0  0  0  0  0  0  0  0  0
   -3.4362   -5.5063    1.8831 H   0  0  0  0  0  0  0  0  0  0  0  0
   -4.7183   -4.3713    1.3743 H   0  0  0  0  0  0  0  0  0  0  0  0
   -4.3722   -4.9571   -0.8248 H   0  0  0  0  0  0  0  0  0  0  0  0
   -3.1064   -6.1070   -0.3080 H   0  0  0  0  0  0  0  0  0  0  0  0
  1  6  2  0  0  0  0
  1  2  1  0  0  0  0
  1 23  1  0  0  0  0
  2  3  2  0  0  0  0
  2 24  1  0  0  0  0
  3  4  1  0  0  0  0
  3 20  1  0  0  0  0
  4  5  2  0  0  0  0
  5  6  1  0  0  0  0
  5 25  1  0  0  0  0
  6  7  1  0  0  0  0
  7  8  2  0  0  0  0
  7  9  1  0  0  0  0
  9 15  1  0  0  0  0
  9 10  1  0  0  0  0
 10 11  1  0  0  0  0
 10 26  1  0  0  0  0
 10 27  1  0  0  0  0
 11 12  1  0  0  0  0
 11 28  1  0  0  0  0
 11 29  1  0  0  0  0
 12 13  1  0  0  0  0
 13 14  1  6  0  0  0
 13 19  1  0  0  0  0
 13 15  1  0  0  0  0
 15 16  1  6  0  0  0
 15 17  1  0  0  0  0
 17 18  1  0  0  0  0
 17 30  1  0  0  0  0
 17 31  1  0  0  0  0
 18 19  1  0  0  0  0
 18 32  1  0  0  0  0
 18 33  1  0  0  0  0
 19 34  1  0  0  0  0
 19 35  1  0  0  0  0
 20 21  2  0  0  0  0
 20 22  1  0  0  0  0
M  END
$$$$
ZINC50195104
 OpenBabel01252620473D

 33 33  0  0  0  0  0  0  0  0999 V2000
   -0.0187    1.5258    0.0104 C   0  0  0  0  0  0  0  0  0  0  0  0
    0.0021   -0.0041    0.0020 C   0  0  0  0  0  0  0  0  0  0  0  0
    0.7421   -0.5109    1.2415 C   0  0  0  0  0  0  0  0  0  0  0  0
   -1.4333   -0.5336    0.0129 C   0  0  0  0  0  0  0  0  0  0  0  0
   -2.1494   -0.0402    1.2717 C   0  0  0  0  0  0  0  0  0  0  0  0
   -3.5633   -0.5619    1.2824 C   0  0  0  0  0  0  0  0  0  0  0  0
   -3.9612   -1.2632    0.3679 O   0  0  0  0  0  0  0  0  0  0  0  0
   -4.3091   -0.2825    2.2055 O   0  0  0  0  0  1  0  0  0  0  0  0
    0.6878   -0.4765   -1.2033 N   0  0  0  0  0  0  0  0  0  0  0  0
    1.9715   -0.1323   -1.4270 C   0  0  0  0  0  0  0  0  0  0  0  0
    2.5599    0.5697   -0.6293 O   0  0  0  0  0  0  0  0  0  0  0  0
    2.6668   -0.6113   -2.6491 C   0  0  0  0  0  0  0  0  0  0  0  0
    2.0008   -1.4185   -3.5730 C   0  0  0  0  0  0  0  0  0  0  0  0
    2.6715   -1.8541   -4.7080 C   0  0  0  0  0  0  0  0  0  0  0  0
    3.9597   -1.5025   -4.9213 N   0  0  0  0  0  0  0  0  0  0  0  0
    4.6252   -0.7215   -4.0405 C   0  0  0  0  0  0  0  0  0  0  0  0
    3.9944   -0.2565   -2.8943 C   0  0  0  0  0  0  0  0  0  0  0  0
    5.9003   -0.3895   -4.2782 O   0  0  0  0  0  0  0  0  0  0  0  0
    2.0382   -2.6285   -5.5978 O   0  5  0  0  0  0  0  0  0  0  0  0
    1.0039    1.9031    0.0027 H   0  0  0  0  0  0  0  0  0  0  0  0
   -0.5459    1.8868   -0.8726 H   0  0  0  0  0  0  0  0  0  0  0  0
   -0.5289    1.8773    0.9072 H   0  0  0  0  0  0  0  0  0  0  0  0
    0.2319   -0.1594    2.1383 H   0  0  0  0  0  0  0  0  0  0  0  0
    0.7568   -1.6008    1.2356 H   0  0  0  0  0  0  0  0  0  0  0  0
    1.7647   -0.1336    1.2338 H   0  0  0  0  0  0  0  0  0  0  0  0
   -1.9605   -0.1726   -0.8702 H   0  0  0  0  0  0  0  0  0  0  0  0
   -1.4185   -1.6235    0.0069 H   0  0  0  0  0  0  0  0  0  0  0  0
   -1.6223   -0.4013    2.1547 H   0  0  0  0  0  0  0  0  0  0  0  0
   -2.1642    1.0497    1.2777 H   0  0  0  0  0  0  0  0  0  0  0  0
    0.2179   -1.0371   -1.8404 H   0  0  0  0  0  0  0  0  0  0  0  0
    0.9722   -1.7022   -3.4061 H   0  0  0  0  0  0  0  0  0  0  0  0
    4.5280    0.3711   -2.1958 H   0  0  0  0  0  0  0  0  0  0  0  0
    4.4139   -1.8158   -5.7190 H   0  0  0  0  0  0  0  0  0  0  0  0
  1  2  1  0  0  0  0
  1 20  1  0  0  0  0
  1 21  1  0  0  0  0
  1 22  1  0  0  0  0
  2  3  1  0  0  0  0
  2  4  1  0  0  0  0
  2  9  1  0  0  0  0
  3 23  1  0  0  0  0
  3 24  1  0  0  0  0
  3 25  1  0  0  0  0
  4  5  1  0  0  0  0
  4 26  1  0  0  0  0
  4 27  1  0  0  0  0
  5  6  1  0  0  0  0
  5 28  1  0  0  0  0
  5 29  1  0  0  0  0
  6  7  2  0  0  0  0
  6  8  1  0  0  0  0
  9 10  1  0  0  0  0
  9 30  1  0  0  0  0
 10 11  2  0  0  0  0
 10 12  1  0  0  0  0
 12 13  1  0  0  0  0
 12 17  2  0  0  0  0
 13 14  2  0  0  0  0
 13 31  1  0  0  0  0
 14 15  1  0  0  0  0
 14 19  1  0  0  0  0
 15 33  1  0  0  0  0
 15 16  1  0  0  0  0
 16 17  1  0  0  0  0
 16 18  2  0  0  0  0
 17 32  1  0  0  0  0
M  CHG  1  19  -1
M  END
$$$$
ZINC63850882
 OpenBabel01252620473D

 42 43  0  0  0  0  0  0  0  0999 V2000
    0.0511    1.7507    0.0616 C   0  0  0  0  0  0  0  0  0  0  0  0
    0.0627    0.2463   -0.0273 C   0  0  0  0  0  3  0  0  0  0  0  0
    0.0990   -0.3629   -1.2653 C   0  0  0  0  0  0  0  0  0  0  0  0
    0.1100   -1.7474   -1.3402 C   0  0  0  0  0  0  0  0  0  0  0  0
    0.0839   -2.4778   -0.1548 C   0  0  0  0  0  0  0  0  0  0  0  0
    0.0479   -1.8016    1.0531 C   0  0  0  0  0  0  0  0  0  0  0  0
    0.0435   -0.4757    1.0851 N   0  0  0  0  0  0  0  0  0  0  0  0
    0.0132    0.1665    2.3020 C   0  0  0  0  0  0  0  0  0  0  0  0
    1.1656    0.7723    2.7990 C   0  0  0  0  0  0  0  0  0  0  0  0
    1.1096    1.5064    3.9526 N   0  0  0  0  0  0  0  0  0  0  0  0
    2.3177    2.1564    4.4666 C   0  0  0  0  0  0  0  0  0  0  0  0
    1.9883    2.8954    5.7380 C   0  0  0  0  0  0  0  0  0  0  0  0
    2.6640    2.6486    6.8329 C   0  0  0  0  0  0  0  0  0  0  0  0
    2.6947    0.5932    1.9421 S   0  0  0  0  0  1  0  0  0  0  0  0
   -1.1829    0.2114    3.0454 C   0  0  0  0  0  0  0  0  0  0  0  0
   -2.0694    0.9861    2.7278 O   0  0  0  0  0  0  0  0  0  0  0  0
   -1.3634   -0.6819    4.2115 C   0  0  0  0  0  0  0  0  0  0  0  0
   -0.3226   -1.5147    4.6238 C   0  0  0  0  0  0  0  0  0  0  0  0
   -0.4970   -2.3447    5.7120 C   0  0  0  0  0  0  0  0  0  0  0  0
   -1.7009   -2.3527    6.3937 C   0  0  0  0  0  0  0  0  0  0  0  0
   -2.7369   -1.5293    5.9899 C   0  0  0  0  0  0  0  0  0  0  0  0
   -2.5732   -0.6905    4.9068 C   0  0  0  0  0  0  0  0  0  0  0  0
   -1.8816   -3.2464    7.5598 N   0  0  0  0  0  4  0  0  0  0  0  0
   -0.9783   -3.9673    7.9146 O   0  0  0  0  0  0  0  0  0  0  0  0
   -2.9326   -3.2555    8.1574 O   0  5  0  0  0  0  0  0  0  0  0  0
    0.0930   -3.8366   -0.1831 O   0  5  0  0  0  0  0  0  0  0  0  0
    1.0757    2.1200    0.1052 H   0  0  0  0  0  0  0  0  0  0  0  0
   -0.4467    2.1627   -0.8162 H   0  0  0  0  0  0  0  0  0  0  0  0
   -0.4842    2.0573    0.9603 H   0  0  0  0  0  0  0  0  0  0  0  0
    0.1182    0.2324   -2.1661 H   0  0  0  0  0  0  0  0  0  0  0  0
    0.1379   -2.2482   -2.2966 H   0  0  0  0  0  0  0  0  0  0  0  0
    0.0275   -2.3591    1.9778 H   0  0  0  0  0  0  0  0  0  0  0  0
    0.2699    1.5964    4.4299 H   0  0  0  0  0  0  0  0  0  0  0  0
    3.0771    1.4018    4.6713 H   0  0  0  0  0  0  0  0  0  0  0  0
    2.6953    2.8601    3.7248 H   0  0  0  0  0  0  0  0  0  0  0  0
    1.1953    3.6284    5.7465 H   0  0  0  0  0  0  0  0  0  0  0  0
    3.4570    1.9155    6.8244 H   0  0  0  0  0  0  0  0  0  0  0  0
    2.4279    3.1782    7.7440 H   0  0  0  0  0  0  0  0  0  0  0  0
    0.6174   -1.5099    4.0921 H   0  0  0  0  0  0  0  0  0  0  0  0
    0.3078   -2.9899    6.0321 H   0  0  0  0  0  0  0  0  0  0  0  0
   -3.6742   -1.5401    6.5262 H   0  0  0  0  0  0  0  0  0  0  0  0
   -3.3810   -0.0449    4.5953 H   0  0  0  0  0  0  0  0  0  0  0  0
  1  2  1  0  0  0  0
  1 27  1  0  0  0  0
  1 28  1  0  0  0  0
  1 29  1  0  0  0  0
  2  7  1  0  0  0  0
  2  3  1  0  0  0  0
  3  4  2  0  0  0  0
  3 30  1  0  0  0  0
  4  5  1  0  0  0  0
  4 31  1  0  0  0  0
  5  6  2  0  0  0  0
  5 26  1  0  0  0  0
  6  7  1  0  0  0  0
  6 32  1  0  0  0  0
  7  8  1  0  0  0  0
  8  9  2  0  0  0  0
  8 15  1  0  0  0  0
  9 10  1  0  0  0  0
  9 14  1  0  0  0  0
 10 11  1  0  0  0  0
 10 33  1  0  0  0  0
 11 12  1  0  0  0  0
 11 34  1  0  0  0  0
 11 35  1  0  0  0  0
 12 13  2  0  0  0  0
 12 36  1  0  0  0  0
 13 37  1  0  0  0  0
 13 38  1  0  0  0  0
 15 16  2  0  0  0  0
 15 17  1  0  0  0  0
 17 22  2  0  0  0  0
 17 18  1  0  0  0  0
 18 19  2  0  0  0  0
 18 39  1  0  0  0  0
 19 20  1  0  0  0  0
 19 40  1  0  0  0  0
 20 21  2  0  0  0  0
 20 23  1  0  0  0  0
 21 22  1  0  0  0  0
 21 41  1  0  0  0  0
 22 42  1  0  0  0  0
 23 24  2  0  0  0  0
 23 25  1  0  0  0  0
M  CHG  2  25  -1  26  -1
M  END
$$$$
ZINC43511218
 OpenBabel01252620473D

 32 33  0  0  1  0  0  0  0  0999 V2000
    2.2409    1.4000    0.5782 C   0  0  0  0  0  0  0  0  0  0  0  0
    1.2013    2.0893   -0.0125 C   0  0  0  0  0  0  0  0  0  0  0  0
    0.1536    1.3901   -0.6152 C   0  0  0  0  0  0  0  0  0  0  0  0
    0.1627   -0.0054   -0.6173 C   0  0  0  0  0  0  0  0  0  0  0  0
    1.2114   -0.6876   -0.0213 C   0  0  0  0  0  0  0  0  0  0  0  0
    2.2495    0.0179    0.5759 C   0  0  0  0  0  0  0  0  0  0  0  0
    1.2253   -2.0872   -0.0207 N   0  0  0  0  0  0  0  0  0  0  0  0
    0.0699   -2.7725    0.0884 C   0  0  0  0  0  0  0  0  0  0  0  0
   -0.9906   -2.1780    0.1018 O   0  0  0  0  0  0  0  0  0  0  0  0
    0.0901   -4.1169    0.1825 N   0  0  0  0  0  0  0  0  0  0  0  0
   -1.1658   -4.8618    0.3011 C   0  0  2  0  0  0  0  0  0  0  0  0
   -0.8583   -6.3620    0.4401 C   0  0  0  0  0  0  0  0  0  0  0  0
   -0.3774   -6.8880   -0.9425 C   0  0  0  0  0  0  0  0  0  0  0  0
   -1.5396   -6.0006   -2.0635 S   0  0  0  0  0  0  0  0  0  0  0  0
   -2.0306   -4.6148   -0.9585 C   0  0  0  0  0  0  0  0  0  0  0  0
   -1.9135   -4.3904    1.5217 C   0  0  0  0  0  0  0  0  0  0  0  0
   -1.4349   -3.5234    2.2328 O   0  0  0  0  0  0  0  0  0  0  0  0
   -2.9972   -4.8761    1.7980 O   0  0  0  0  0  1  0  0  0  0  0  0
   -0.9267    2.1025   -1.2285 C   0  0  0  0  0  0  0  0  0  0  0  0
   -1.7836    2.6676   -1.7150 N   0  0  0  0  0  0  0  0  0  0  0  0
    3.0526    1.9425    1.0399 H   0  0  0  0  0  0  0  0  0  0  0  0
    1.1980    3.1693   -0.0084 H   0  0  0  0  0  0  0  0  0  0  0  0
   -0.6449   -0.5518   -1.0815 H   0  0  0  0  0  0  0  0  0  0  0  0
    3.0660   -0.5159    1.0395 H   0  0  0  0  0  0  0  0  0  0  0  0
    2.0665   -2.5639   -0.0988 H   0  0  0  0  0  0  0  0  0  0  0  0
    0.9362   -4.5911    0.1718 H   0  0  0  0  0  0  0  0  0  0  0  0
   -0.0746   -6.5099    1.1831 H   0  0  0  0  0  0  0  0  0  0  0  0
   -1.7587   -6.8957    0.7441 H   0  0  0  0  0  0  0  0  0  0  0  0
    0.6555   -6.5989   -1.1366 H   0  0  0  0  0  0  0  0  0  0  0  0
   -0.5033   -7.9680   -1.0189 H   0  0  0  0  0  0  0  0  0  0  0  0
   -3.0917   -4.6713   -0.7159 H   0  0  0  0  0  0  0  0  0  0  0  0
   -1.7873   -3.6540   -1.4121 H   0  0  0  0  0  0  0  0  0  0  0  0
  1  6  2  0  0  0  0
  1  2  1  0  0  0  0
  1 21  1  0  0  0  0
  2  3  2  0  0  0  0
  2 22  1  0  0  0  0
  3  4  1  0  0  0  0
  3 19  1  0  0  0  0
  4  5  2  0  0  0  0
  4 23  1  0  0  0  0
  5  6  1  0  0  0  0
  5  7  1  0  0  0  0
  6 24  1  0  0  0  0
  7  8  1  0  0  0  0
  7 25  1  0  0  0  0
  8  9  2  0  0  0  0
  8 10  1  0  0  0  0
 10 11  1  0  0  0  0
 10 26  1  0  0  0  0
 11 15  1  0  0  0  0
 11 12  1  0  0  0  0
 11 16  1  1  0  0  0
 12 13  1  0  0  0  0
 12 27  1  0  0  0  0
 12 28  1  0  0  0  0
 13 14  1  0  0  0  0
 13 29  1  0  0  0  0
 13 30  1  0  0  0  0
 14 15  1  0  0  0  0
 15 31  1  0  0  0  0
 15 32  1  0  0  0  0
 16 17  2  0  0  0  0
 16 18  1  0  0  0  0
 19 20  3  0  0  0  0
M  END
$$$$
ZINC40082895
 OpenBabel01252620473D

 58 60  0  0  1  0  0  0  0  0999 V2000
   -2.3238   -1.3837    1.7066 C   0  0  0  0  0  0  0  0  0  0  0  0
   -1.1045   -1.3629    0.8211 C   0  0  0  0  0  0  0  0  0  0  0  0
   -1.0816   -2.1058   -0.3379 C   0  0  0  0  0  0  0  0  0  0  0  0
    0.0429   -2.0877   -1.1552 C   0  0  0  0  0  0  0  0  0  0  0  0
    1.1486   -1.3196   -0.8066 C   0  0  0  0  0  0  0  0  0  0  0  0
    1.1339   -0.5741    0.3503 C   0  0  0  0  0  0  0  0  0  0  0  0
    0.0026   -0.5848    1.1724 C   0  0  0  0  0  0  0  0  0  0  0  0
   -0.0201    0.2183    2.4106 C   0  0  0  0  0  0  0  0  0  0  0  0
   -0.1718    1.4243    2.3510 O   0  0  0  0  0  0  0  0  0  0  0  0
    0.1399   -0.4370    3.7126 C   0  0  0  0  0  0  0  0  0  0  0  0
    0.0345    0.1473    4.9287 C   0  0  0  0  0  0  0  0  0  0  0  0
    0.2673   -0.8680    5.9771 C   0  0  0  0  0  0  0  0  0  0  0  0
    0.2402   -0.6545    7.1729 O   0  0  0  0  0  0  0  0  0  0  0  0
    0.5133   -2.0639    5.4118 N   0  0  0  0  0  0  0  0  0  0  0  0
    0.4479   -1.8962    3.9552 C   0  0  2  0  0  0  0  0  0  0  0  0
   -0.3428   -2.5204    3.5389 H   0  0  0  0  0  0  0  0  0  0  0  0
    1.7736   -2.2559    3.3354 C   0  0  0  0  0  0  0  0  0  0  0  0
    2.9492   -1.8155    3.9142 C   0  0  0  0  0  0  0  0  0  0  0  0
    4.1654   -2.1456    3.3464 C   0  0  0  0  0  0  0  0  0  0  0  0
    4.2060   -2.9167    2.1988 C   0  0  0  0  0  0  0  0  0  0  0  0
    3.0295   -3.3572    1.6200 C   0  0  0  0  0  0  0  0  0  0  0  0
    1.8140   -3.0311    2.1915 C   0  0  0  0  0  0  0  0  0  0  0  0
    5.8695   -3.3682    1.4211 Br  0  0  0  0  0  0  0  0  0  0  0  0
    0.7912   -3.3135    6.1241 C   0  0  0  0  0  0  0  0  0  0  0  0
   -0.5226   -4.0496    6.3942 C   0  0  0  0  0  0  0  0  0  0  0  0
   -1.1111   -4.4447    5.1534 O   0  0  0  0  0  0  0  0  0  0  0  0
   -2.3493   -5.1440    5.2939 C   0  0  0  0  0  0  0  0  0  0  0  0
   -2.8850   -5.5158    3.9098 C   0  0  0  0  0  0  0  0  0  0  0  0
   -1.9946   -6.4447    3.2883 O   0  0  0  0  0  0  0  0  0  0  0  0
   -0.2400    1.4536    5.1496 O   0  5  0  0  0  0  0  0  0  0  0  0
    0.0619   -2.8220   -2.2962 O   0  0  0  0  0  0  0  0  0  0  0  0
    1.2487   -2.7577   -3.0895 C   0  0  0  0  0  0  0  0  0  0  0  0
    1.0869   -3.6306   -4.3072 C   0  0  0  0  0  0  0  0  0  0  0  0
    1.4492   -3.1856   -5.4849 C   0  0  0  0  0  0  0  0  0  0  0  0
   -2.9671   -0.5394    1.4589 H   0  0  0  0  0  0  0  0  0  0  0  0
   -2.8697   -2.3143    1.5515 H   0  0  0  0  0  0  0  0  0  0  0  0
   -2.0163   -1.3124    2.7499 H   0  0  0  0  0  0  0  0  0  0  0  0
   -1.9381   -2.7036   -0.6122 H   0  0  0  0  0  0  0  0  0  0  0  0
    2.0201   -1.3084   -1.4443 H   0  0  0  0  0  0  0  0  0  0  0  0
    1.9930    0.0219    0.6205 H   0  0  0  0  0  0  0  0  0  0  0  0
    2.9174   -1.2131    4.8101 H   0  0  0  0  0  0  0  0  0  0  0  0
    5.0837   -1.8011    3.7985 H   0  0  0  0  0  0  0  0  0  0  0  0
    3.0607   -3.9594    0.7240 H   0  0  0  0  0  0  0  0  0  0  0  0
    0.8954   -3.3784    1.7420 H   0  0  0  0  0  0  0  0  0  0  0  0
    1.4413   -3.9419    5.5154 H   0  0  0  0  0  0  0  0  0  0  0  0
    1.2839   -3.0904    7.0705 H   0  0  0  0  0  0  0  0  0  0  0  0
   -0.3257   -4.9336    7.0007 H   0  0  0  0  0  0  0  0  0  0  0  0
   -1.2066   -3.3887    6.9267 H   0  0  0  0  0  0  0  0  0  0  0  0
   -2.1903   -6.0507    5.8776 H   0  0  0  0  0  0  0  0  0  0  0  0
   -3.0712   -4.5057    5.8035 H   0  0  0  0  0  0  0  0  0  0  0  0
   -3.8707   -5.9697    4.0116 H   0  0  0  0  0  0  0  0  0  0  0  0
   -2.9600   -4.6181    3.2961 H   0  0  0  0  0  0  0  0  0  0  0  0
   -2.2722   -6.7251    2.4054 H   0  0  0  0  0  0  0  0  0  0  0  0
    1.4220   -1.7277   -3.4012 H   0  0  0  0  0  0  0  0  0  0  0  0
    2.0977   -3.1073   -2.5021 H   0  0  0  0  0  0  0  0  0  0  0  0
    0.6722   -4.6230   -4.2091 H   0  0  0  0  0  0  0  0  0  0  0  0
    1.8638   -2.1932   -5.5831 H   0  0  0  0  0  0  0  0  0  0  0  0
    1.3332   -3.8112   -6.3576 H   0  0  0  0  0  0  0  0  0  0  0  0
  1  2  1  0  0  0  0
  1 35  1  0  0  0  0
  1 36  1  0  0  0  0
  1 37  1  0  0  0  0
  2  7  2  0  0  0  0
  2  3  1  0  0  0  0
  3  4  2  0  0  0  0
  3 38  1  0  0  0  0
  4  5  1  0  0  0  0
  4 31  1  0  0  0  0
  5  6  2  0  0  0  0
  5 39  1  0  0  0  0
  6  7  1  0  0  0  0
  6 40  1  0  0  0  0
  7  8  1  0  0  0  0
  8  9  2  0  0  0  0
  8 10  1  0  0  0  0
 10 15  1  0  0  0  0
 10 11  2  0  0  0  0
 11 12  1  0  0  0  0
 11 30  1  0  0  0  0
 12 13  2  0  0  0  0
 12 14  1  0  0  0  0
 14 15  1  0  0  0  0
 14 24  1  0  0  0  0
 15 16  1  6  0  0  0
 15 17  1  0  0  0  0
 17 22  2  0  0  0  0
 17 18  1  0  0  0  0
 18 19  2  0  0  0  0
 18 41  1  0  0  0  0
 19 20  1  0  0  0  0
 19 42  1  0  0  0  0
 20 21  2  0  0  0  0
 20 23  1  0  0  0  0
 21 22  1  0  0  0  0
 21 43  1  0  0  0  0
 22 44  1  0  0  0  0
 24 25  1  0  0  0  0
 24 45  1  0  0  0  0
 24 46  1  0  0  0  0
 25 26  1  0  0  0  0
 25 47  1  0  0  0  0
 25 48  1  0  0  0  0
 26 27  1  0  0  0  0
 27 28  1  0  0  0  0
 27 49  1  0  0  0  0
 27 50  1  0  0  0  0
 28 29  1  0  0  0  0
 28 51  1  0  0  0  0
 28 52  1  0  0  0  0
 29 53  1  0  0  0  0
 31 32  1  0  0  0  0
 32 33  1  0  0  0  0
 32 54  1  0  0  0  0
 32 55  1  0  0  0  0
 33 34  2  0  0  0  0
 33 56  1  0  0  0  0
 34 57  1  0  0  0  0
 34 58  1  0  0  0  0
M  CHG  1  30  -1
M  END
$$$$
ZINC40015362
 OpenBabel01252620473D

 59 64  0  0  1  0  0  0  0  0999 V2000
   -3.4633   -1.8003    1.4210 C   0  0  0  0  0  0  0  0  0  0  0  0
   -3.2912   -1.5574    0.1453 C   0  0  0  0  0  0  0  0  0  0  0  0
   -1.9118   -1.2653   -0.3867 C   0  0  0  0  0  0  0  0  0  0  0  0
   -1.5952   -2.2050   -1.4651 N   0  0  0  0  0  0  0  0  0  0  0  0
   -1.7869   -1.9289   -2.8202 C   0  0  0  0  0  0  0  0  0  0  0  0
   -2.2849   -0.7941   -3.4568 C   0  0  0  0  0  0  0  0  0  0  0  0
   -2.3820   -0.7569   -4.8322 C   0  0  0  0  0  0  0  0  0  0  0  0
   -1.9865   -1.8440   -5.5902 C   0  0  0  0  0  0  0  0  0  0  0  0
   -1.4902   -2.9746   -4.9658 C   0  0  0  0  0  0  0  0  0  0  0  0
   -1.3917   -3.0156   -3.5930 C   0  0  0  0  0  0  0  0  0  0  0  0
   -0.9103   -4.0618   -2.6236 C   0  0  1  0  0  0  0  0  0  0  0  0
   -1.0805   -3.4324   -1.2645 C   0  0  0  0  0  0  0  0  0  0  0  0
   -0.8083   -3.9362   -0.1953 O   0  0  0  0  0  0  0  0  0  0  0  0
   -1.7114   -5.3294   -2.7451 C   0  0  0  0  0  0  0  0  0  0  0  0
   -0.8279   -6.3150   -3.0372 C   0  0  0  0  0  0  0  0  0  0  0  0
    0.5318   -5.7409   -3.1128 C   0  0  0  0  0  0  0  0  0  0  0  0
    1.5421   -6.3701   -3.3578 O   0  0  0  0  0  0  0  0  0  0  0  0
    0.4854   -4.4160   -2.8696 N   0  0  0  0  0  0  0  0  0  0  0  0
    1.6271   -3.4981   -2.8551 C   0  0  0  0  0  0  0  0  0  0  0  0
    2.3089   -3.5537   -1.4866 C   0  0  1  0  0  0  0  0  0  0  0  0
    2.5929   -4.5786   -1.2476 H   0  0  0  0  0  0  0  0  0  0  0  0
    3.5546   -2.6324   -1.4685 C   0  0  0  0  0  0  0  0  0  0  0  0
    3.6770   -2.3320    0.0503 C   0  0  0  0  0  0  0  0  0  0  0  0
    2.1999   -2.3012    0.4983 C   0  0  0  0  0  0  0  0  0  0  0  0
    1.4367   -3.0288   -0.4732 O   0  0  0  0  0  0  0  0  0  0  0  0
   -1.1410   -7.6178   -3.2288 O   0  5  0  0  0  0  0  0  0  0  0  0
   -3.1621   -5.4709   -2.5796 C   0  0  0  0  0  0  0  0  0  0  0  0
   -3.8646   -4.4798   -2.4919 O   0  0  0  0  0  0  0  0  0  0  0  0
   -3.7675   -6.8080   -2.5197 C   0  0  0  0  0  0  0  0  0  0  0  0
   -5.1044   -7.0628   -2.5034 C   0  0  0  0  0  0  0  0  0  0  0  0
   -5.2382   -8.5167   -2.4403 C   0  0  0  0  0  0  0  0  0  0  0  0
   -6.3255   -9.3939   -2.3982 C   0  0  0  0  0  0  0  0  0  0  0  0
   -6.1066  -10.7412   -2.3411 C   0  0  0  0  0  0  0  0  0  0  0  0
   -4.8122  -11.2435   -2.3246 C   0  0  0  0  0  0  0  0  0  0  0  0
   -3.7265  -10.3955   -2.3649 C   0  0  0  0  0  0  0  0  0  0  0  0
   -3.9237   -9.0210   -2.4238 C   0  0  0  0  0  0  0  0  0  0  0  0
   -3.0826   -7.9696   -2.4783 O   0  0  0  0  0  0  0  0  0  0  0  0
   -4.4518   -2.0097    1.8023 H   0  0  0  0  0  0  0  0  0  0  0  0
   -2.6160   -1.7956    2.0907 H   0  0  0  0  0  0  0  0  0  0  0  0
   -4.1378   -1.5666   -0.5251 H   0  0  0  0  0  0  0  0  0  0  0  0
   -1.8793   -0.2461   -0.7718 H   0  0  0  0  0  0  0  0  0  0  0  0
   -1.1823   -1.3740    0.4158 H   0  0  0  0  0  0  0  0  0  0  0  0
   -2.5961    0.0587   -2.8717 H   0  0  0  0  0  0  0  0  0  0  0  0
   -2.7693    0.1255   -5.3197 H   0  0  0  0  0  0  0  0  0  0  0  0
   -2.0651   -1.8105   -6.6669 H   0  0  0  0  0  0  0  0  0  0  0  0
   -1.1801   -3.8249   -5.5551 H   0  0  0  0  0  0  0  0  0  0  0  0
    2.3383   -3.7905   -3.6276 H   0  0  0  0  0  0  0  0  0  0  0  0
    1.2795   -2.4829   -3.0468 H   0  0  0  0  0  0  0  0  0  0  0  0
    4.4362   -3.1563   -1.8377 H   0  0  0  0  0  0  0  0  0  0  0  0
    3.3761   -1.7193   -2.0364 H   0  0  0  0  0  0  0  0  0  0  0  0
    4.2206   -3.1272    0.5604 H   0  0  0  0  0  0  0  0  0  0  0  0
    4.1533   -1.3659    0.2175 H   0  0  0  0  0  0  0  0  0  0  0  0
    2.0998   -2.7746    1.4750 H   0  0  0  0  0  0  0  0  0  0  0  0
    1.8501   -1.2701    0.5482 H   0  0  0  0  0  0  0  0  0  0  0  0
   -5.9042   -6.3376   -2.5314 H   0  0  0  0  0  0  0  0  0  0  0  0
   -7.3343   -9.0084   -2.4104 H   0  0  0  0  0  0  0  0  0  0  0  0
   -6.9459  -11.4200   -2.3081 H   0  0  0  0  0  0  0  0  0  0  0  0
   -4.6545  -12.3110   -2.2793 H   0  0  0  0  0  0  0  0  0  0  0  0
   -2.7245  -10.7982   -2.3509 H   0  0  0  0  0  0  0  0  0  0  0  0
  1  2  2  0  0  0  0
  1 38  1  0  0  0  0
  1 39  1  0  0  0  0
  2  3  1  0  0  0  0
  2 40  1  0  0  0  0
  3  4  1  0  0  0  0
  3 41  1  0  0  0  0
  3 42  1  0  0  0  0
  4 12  1  0  0  0  0
  4  5  1  0  0  0  0
  5 10  2  0  0  0  0
  5  6  1  0  0  0  0
  6  7  2  0  0  0  0
  6 43  1  0  0  0  0
  7  8  1  0  0  0  0
  7 44  1  0  0  0  0
  8  9  2  0  0  0  0
  8 45  1  0  0  0  0
  9 10  1  0  0  0  0
  9 46  1  0  0  0  0
 11 10  1  6  0  0  0
 11 18  1  0  0  0  0
 11 12  1  0  0  0  0
 11 14  1  0  0  0  0
 12 13  2  0  0  0  0
 14 15  2  0  0  0  0
 14 27  1  0  0  0  0
 15 16  1  0  0  0  0
 15 26  1  0  0  0  0
 16 17  2  0  0  0  0
 16 18  1  0  0  0  0
 18 19  1  0  0  0  0
 19 20  1  0  0  0  0
 19 47  1  0  0  0  0
 19 48  1  0  0  0  0
 20 21  1  1  0  0  0
 20 25  1  0  0  0  0
 20 22  1  0  0  0  0
 22 23  1  0  0  0  0
 22 49  1  0  0  0  0
 22 50  1  0  0  0  0
 23 24  1  0  0  0  0
 23 51  1  0  0  0  0
 23 52  1  0  0  0  0
 24 25  1  0  0  0  0
 24 53  1  0  0  0  0
 24 54  1  0  0  0  0
 27 28  2  0  0  0  0
 27 29  1  0  0  0  0
 29 37  1  0  0  0  0
 29 30  2  0  0  0  0
 30 31  1  0  0  0  0
 30 55  1  0  0  0  0
 31 36  2  0  0  0  0
 31 32  1  0  0  0  0
 32 33  2  0  0  0  0
 32 56  1  0  0  0  0
 33 34  1  0  0  0  0
 33 57  1  0  0  0  0
 34 35  2  0  0  0  0
 34 58  1  0  0  0  0
 35 36  1  0  0  0  0
 35 59  1  0  0  0  0
 36 37  1  0  0  0  0
M  CHG  1  26  -1
M  END
$$$$
ZINC31970582
 OpenBabel01252620473D

 67 70  0  0  0  0  0  0  0  0999 V2000
    0.9269   13.8261    1.9189 C   0  0  0  0  0  0  0  0  0  0  0  0
    0.6195   14.1821    0.4630 C   0  0  0  0  0  0  0  0  0  0  0  0
    1.8909   14.0402   -0.3762 C   0  0  0  0  0  0  0  0  0  0  0  0
    1.5835   14.3962   -1.8321 C   0  0  0  0  0  0  0  0  0  0  0  0
    2.8010   14.2603   -2.6356 N   0  0  0  0  0  0  0  0  0  0  0  0
    3.7375   15.2459   -2.8752 C   0  0  0  0  0  0  0  0  0  0  0  0
    3.8621   16.5747   -2.4928 C   0  0  0  0  0  0  0  0  0  0  0  0
    4.9474   17.3093   -2.9204 C   0  0  0  0  0  0  0  0  0  0  0  0
    5.9143   16.7296   -3.7298 C   0  0  0  0  0  0  0  0  0  0  0  0
    5.8084   15.4235   -4.1156 C   0  0  0  0  0  0  0  0  0  0  0  0
    4.7168   14.6594   -3.6944 C   0  0  0  0  0  0  0  0  0  0  0  0
    4.3386   13.3721   -3.9030 N   0  0  0  0  0  0  0  0  0  0  0  0
    3.2201   13.1385   -3.2808 C   0  0  0  0  0  0  0  0  0  0  0  0
    2.4917   11.8192   -3.2804 C   0  0  0  0  0  0  0  0  0  0  0  0
    2.9814   10.9666   -2.1081 C   0  0  0  0  0  0  0  0  0  0  0  0
    2.2529    9.6474   -2.1077 C   0  0  0  0  0  0  0  0  0  0  0  0
    1.4238    9.4122   -2.9610 O   0  0  0  0  0  0  0  0  0  0  0  0
    2.5229    8.7288   -1.1591 N   0  0  0  0  0  0  0  0  0  0  0  0
    1.8148    7.4464   -1.1586 C   0  0  0  0  0  0  0  0  0  0  0  0
    2.3045    6.5938    0.0137 C   0  0  0  0  0  0  0  0  0  0  0  0
    1.5760    5.2745    0.0141 C   0  0  0  0  0  0  0  0  0  0  0  0
    2.1557    4.0542    0.0023 C   0  0  0  0  0  0  0  0  0  0  0  0
    1.1482    3.1282    0.0074 N   0  0  0  0  0  0  0  0  0  0  0  0
    1.1486    1.7634    0.0006 C   0  0  0  0  0  0  0  0  0  0  0  0
   -0.0126    1.0758    0.0080 C   0  0  0  0  0  0  0  0  0  0  0  0
   -1.2403    1.7584    0.0175 C   0  0  0  0  0  0  0  0  0  0  0  0
   -1.2550    3.1185    0.0308 C   0  0  0  0  0  0  0  0  0  0  0  0
   -0.0339    3.8221    0.0225 C   0  0  0  0  0  0  0  0  0  0  0  0
    0.2503    5.1168    0.0262 N   0  0  0  0  0  0  0  0  0  0  0  0
    7.2927   17.6879   -4.2648 S   0  0  0  0  0  0  0  0  0  0  0  0
    7.7725   17.0796   -5.4559 O   0  0  0  0  0  0  0  0  0  0  0  0
    6.8854   19.0484   -4.2149 O   0  0  0  0  0  0  0  0  0  0  0  0
    8.4841   17.5086   -3.1287 N   0  0  0  0  0  0  0  0  0  0  0  0
    9.4630   16.4264   -3.2583 C   0  0  0  0  0  0  0  0  0  0  0  0
    8.5593   18.4322   -1.9940 C   0  0  0  0  0  0  0  0  0  0  0  0
    0.0128   13.9281    2.5222 H   0  0  0  0  0  0  0  0  0  0  0  0
    1.7001   14.5054    2.3070 H   0  0  0  0  0  0  0  0  0  0  0  0
    1.2888   12.7888    1.9742 H   0  0  0  0  0  0  0  0  0  0  0  0
   -0.1537   13.5028    0.0749 H   0  0  0  0  0  0  0  0  0  0  0  0
    0.2576   15.2194    0.4077 H   0  0  0  0  0  0  0  0  0  0  0  0
    2.6641   14.7195    0.0119 H   0  0  0  0  0  0  0  0  0  0  0  0
    2.2529   13.0029   -0.3210 H   0  0  0  0  0  0  0  0  0  0  0  0
    0.8103   13.7169   -2.2203 H   0  0  0  0  0  0  0  0  0  0  0  0
    1.2216   15.4335   -1.8874 H   0  0  0  0  0  0  0  0  0  0  0  0
    3.1125   17.0306   -1.8630 H   0  0  0  0  0  0  0  0  0  0  0  0
    5.0458   18.3431   -2.6237 H   0  0  0  0  0  0  0  0  0  0  0  0
    6.5667   14.9823   -4.7453 H   0  0  0  0  0  0  0  0  0  0  0  0
    1.4110   11.9971   -3.1782 H   0  0  0  0  0  0  0  0  0  0  0  0
    2.6886   11.2913   -4.2252 H   0  0  0  0  0  0  0  0  0  0  0  0
    4.0621   10.7887   -2.2104 H   0  0  0  0  0  0  0  0  0  0  0  0
    2.7845   11.4945   -1.1633 H   0  0  0  0  0  0  0  0  0  0  0  0
    3.2750    8.9421   -0.3853 H   0  0  0  0  0  0  0  0  0  0  0  0
    0.7341    7.6243   -1.0563 H   0  0  0  0  0  0  0  0  0  0  0  0
    2.0116    6.9185   -2.1033 H   0  0  0  0  0  0  0  0  0  0  0  0
    3.3852    6.4159   -0.0886 H   0  0  0  0  0  0  0  0  0  0  0  0
    2.1076    7.1217    0.9585 H   0  0  0  0  0  0  0  0  0  0  0  0
    3.2158    3.8481   -0.0091 H   0  0  0  0  0  0  0  0  0  0  0  0
    2.0869    1.2287   -0.0113 H   0  0  0  0  0  0  0  0  0  0  0  0
    0.0021   -0.0041    0.0020 H   0  0  0  0  0  0  0  0  0  0  0  0
   -2.1682    1.2058    0.0189 H   0  0  0  0  0  0  0  0  0  0  0  0
   -2.1929    3.6538    0.0422 H   0  0  0  0  0  0  0  0  0  0  0  0
   10.1695   16.4682   -2.4162 H   0  0  0  0  0  0  0  0  0  0  0  0
   10.0128   16.5407   -4.2042 H   0  0  0  0  0  0  0  0  0  0  0  0
    8.9417   15.4578   -3.2519 H   0  0  0  0  0  0  0  0  0  0  0  0
    9.4090   18.1561   -1.3522 H   0  0  0  0  0  0  0  0  0  0  0  0
    7.6271   18.3755   -1.4127 H   0  0  0  0  0  0  0  0  0  0  0  0
    8.6982   19.4584   -2.3651 H   0  0  0  0  0  0  0  0  0  0  0  0
  1  2  1  0  0  0  0
  1 36  1  0  0  0  0
  1 37  1  0  0  0  0
  1 38  1  0  0  0  0
  2  3  1  0  0  0  0
  2 39  1  0  0  0  0
  2 40  1  0  0  0  0
  3  4  1  0  0  0  0
  3 41  1  0  0  0  0
  3 42  1  0  0  0  0
  4  5  1  0  0  0  0
  4 43  1  0  0  0  0
  4 44  1  0  0  0  0
  5 13  1  0  0  0  0
  5  6  1  0  0  0  0
  6 11  2  0  0  0  0
  6  7  1  0  0  0  0
  7  8  2  0  0  0  0
  7 45  1  0  0  0  0
  8  9  1  0  0  0  0
  8 46  1  0  0  0  0
  9 10  2  0  0  0  0
  9 30  1  0  0  0  0
 10 11  1  0  0  0  0
 10 47  1  0  0  0  0
 11 12  1  0  0  0  0
 12 13  2  0  0  0  0
 13 14  1  0  0  0  0
 14 15  1  0  0  0  0
 14 48  1  0  0  0  0
 14 49  1  0  0  0  0
 15 16  1  0  0  0  0
 15 50  1  0  0  0  0
 15 51  1  0  0  0  0
 16 17  2  0  0  0  0
 16 18  1  0  0  0  0
 18 19  1  0  0  0  0
 18 52  1  0  0  0  0
 19 20  1  0  0  0  0
 19 53  1  0  0  0  0
 19 54  1  0  0  0  0
 20 21  1  0  0  0  0
 20 55  1  0  0  0  0
 20 56  1  0  0  0  0
 21 29  1  0  0  0  0
 21 22  2  0  0  0  0
 22 23  1  0  0  0  0
 22 57  1  0  0  0  0
 23 28  1  0  0  0  0
 23 24  1  0  0  0  0
 24 25  2  0  0  0  0
 24 58  1  0  0  0  0
 25 26  1  0  0  0  0
 25 59  1  0  0  0  0
 26 27  2  0  0  0  0
 26 60  1  0  0  0  0
 27 28  1  0  0  0  0
 27 61  1  0  0  0  0
 28 29  2  0  0  0  0
 30 31  2  0  0  0  0
 30 32  2  0  0  0  0
 30 33  1  0  0  0  0
 33 34  1  0  0  0  0
 33 35  1  0  0  0  0
 34 62  1  0  0  0  0
 34 63  1  0  0  0  0
 34 64  1  0  0  0  0
 35 65  1  0  0  0  0
 35 66  1  0  0  0  0
 35 67  1  0  0  0  0
M  END
$$$$
ZINC32748029
 OpenBabel01252620473D

 46 47  0  0  0  0  0  0  0  0999 V2000
    1.4414   15.7473    5.7948 C   0  0  0  0  0  0  0  0  0  0  0  0
    1.5077   14.5585    4.8340 C   0  0  0  0  0  0  0  0  0  0  0  0
    1.4811   13.3097    5.5996 N   0  0  0  0  0  0  0  0  0  0  0  0
    1.5300   12.1251    4.9587 C   0  0  0  0  0  0  0  0  0  0  0  0
    1.5959   12.0929    3.7481 O   0  0  0  0  0  0  0  0  0  0  0  0
    1.5027   10.8406    5.7463 C   0  0  0  0  0  0  0  0  0  0  0  0
    1.5661    9.7023    4.8263 N   0  0  0  0  0  0  0  0  0  0  0  0
    1.5550    8.4441    5.3093 C   0  0  0  0  0  0  0  0  0  0  0  0
    1.4924    8.2538    6.5082 O   0  0  0  0  0  0  0  0  0  0  0  0
    1.6190    7.2953    4.3808 C   0  0  0  0  0  0  0  0  0  0  0  0
    1.6915    7.5103    3.0034 C   0  0  0  0  0  0  0  0  0  0  0  0
    1.7514    6.4341    2.1427 C   0  0  0  0  0  0  0  0  0  0  0  0
    1.7451    5.1436    2.6422 C   0  0  0  0  0  0  0  0  0  0  0  0
    1.6682    4.9235    4.0058 C   0  0  0  0  0  0  0  0  0  0  0  0
    1.6077    5.9912    4.8777 C   0  0  0  0  0  0  0  0  0  0  0  0
    1.6546    3.2762    4.6309 S   0  0  0  0  0  0  0  0  0  0  0  0
    2.1330    3.3450    5.9672 O   0  0  0  0  0  0  0  0  0  0  0  0
    2.2699    2.4616    3.6424 O   0  0  0  0  0  0  0  0  0  0  0  0
    0.0713    2.7989    4.7190 N   0  0  0  0  0  2  0  0  0  0  0  0
   -0.7105    2.7544    3.5615 C   0  0  0  0  0  0  0  0  0  0  0  0
   -0.1422    2.3773    2.3518 C   0  0  0  0  0  0  0  0  0  0  0  0
   -0.9176    2.3338    1.2097 C   0  0  0  0  0  0  0  0  0  0  0  0
   -2.2577    2.6703    1.2682 C   0  0  0  0  0  0  0  0  0  0  0  0
   -2.8288    3.0413    2.4716 C   0  0  0  0  0  0  0  0  0  0  0  0
   -2.0588    3.0870    3.6185 C   0  0  0  0  0  0  0  0  0  0  0  0
   -2.7748    3.5586    5.1280 Cl  0  0  0  0  0  0  0  0  0  0  0  0
   -0.3012    1.9251   -0.1033 C   0  0  0  0  0  0  0  0  0  0  0  0
   -0.4100    0.5390   -0.2582 F   0  0  0  0  0  0  0  0  0  0  0  0
    1.0489    2.2914   -0.1186 F   0  0  0  0  0  0  0  0  0  0  0  0
   -0.9701    2.5655   -1.1519 F   0  0  0  0  0  0  0  0  0  0  0  0
    1.4614   16.6849    5.2199 H   0  0  0  0  0  0  0  0  0  0  0  0
    2.3044   15.7165    6.4762 H   0  0  0  0  0  0  0  0  0  0  0  0
    0.5108   15.6951    6.3790 H   0  0  0  0  0  0  0  0  0  0  0  0
    0.6447   14.5893    4.1526 H   0  0  0  0  0  0  0  0  0  0  0  0
    2.4383   14.6107    4.2498 H   0  0  0  0  0  0  0  0  0  0  0  0
    1.4212   13.3389    6.6976 H   0  0  0  0  0  0  0  0  0  0  0  0
    2.3657   10.8099    6.4277 H   0  0  0  0  0  0  0  0  0  0  0  0
    0.5722   10.7884    6.3306 H   0  0  0  0  0  0  0  0  0  0  0  0
    1.6228    9.8745    3.7413 H   0  0  0  0  0  0  0  0  0  0  0  0
    1.7010    8.5171    2.6126 H   0  0  0  0  0  0  0  0  0  0  0  0
    1.8075    6.5991    1.0769 H   0  0  0  0  0  0  0  0  0  0  0  0
    1.7967    4.3045    1.9642 H   0  0  0  0  0  0  0  0  0  0  0  0
    1.5515    5.8181    5.9422 H   0  0  0  0  0  0  0  0  0  0  0  0
    0.9051    2.1179    2.3042 H   0  0  0  0  0  0  0  0  0  0  0  0
   -2.8605    2.6397    0.3726 H   0  0  0  0  0  0  0  0  0  0  0  0
   -3.8766    3.2995    2.5147 H   0  0  0  0  0  0  0  0  0  0  0  0
  1  2  1  0  0  0  0
  1 31  1  0  0  0  0
  1 32  1  0  0  0  0
  1 33  1  0  0  0  0
  2  3  1  0  0  0  0
  2 34  1  0  0  0  0
  2 35  1  0  0  0  0
  3  4  1  0  0  0  0
  3 36  1  0  0  0  0
  4  5  2  0  0  0  0
  4  6  1  0  0  0  0
  6  7  1  0  0  0  0
  6 37  1  0  0  0  0
  6 38  1  0  0  0  0
  7  8  1  0  0  0  0
  7 39  1  0  0  0  0
  8  9  2  0  0  0  0
  8 10  1  0  0  0  0
 10 15  2  0  0  0  0
 10 11  1  0  0  0  0
 11 12  2  0  0  0  0
 11 40  1  0  0  0  0
 12 13  1  0  0  0  0
 12 41  1  0  0  0  0
 13 14  2  0  0  0  0
 13 42  1  0  0  0  0
 14 15  1  0  0  0  0
 14 16  1  0  0  0  0
 15 43  1  0  0  0  0
 16 17  2  0  0  0  0
 16 18  2  0  0  0  0
 16 19  1  0  0  0  0
 19 20  1  0  0  0  0
 20 25  2  0  0  0  0
 20 21  1  0  0  0  0
 21 22  2  0  0  0  0
 21 44  1  0  0  0  0
 22 23  1  0  0  0  0
 22 27  1  0  0  0  0
 23 24  2  0  0  0  0
 23 45  1  0  0  0  0
 24 25  1  0  0  0  0
 24 46  1  0  0  0  0
 25 26  1  0  0  0  0
 27 28  1  0  0  0  0
 27 29  1  0  0  0  0
 27 30  1  0  0  0  0
M  END
$$$$
ZINC63879149
 OpenBabel01252620473D

 31 32  0  0  0  0  0  0  0  0999 V2000
    0.1030    0.9159   -0.3288 C   0  0  0  0  0  0  0  0  0  0  0  0
    0.2667   -0.5412    0.0193 C   0  0  0  0  0  0  0  0  0  0  0  0
    0.3637   -1.4825   -0.9848 C   0  0  0  0  0  0  0  0  0  0  0  0
    0.5147   -2.8273   -0.6758 C   0  0  0  0  0  0  0  0  0  0  0  0
    0.5691   -3.2376    0.6395 C   0  0  0  0  0  0  0  0  0  0  0  0
    0.4721   -2.2946    1.6685 C   0  0  0  0  0  0  0  0  0  0  0  0
    0.3255   -0.9338    1.3505 C   0  0  0  0  0  0  0  0  0  0  0  0
    0.2338    0.0131    2.3618 N   0  0  0  0  0  2  0  0  0  0  0  0
    1.4167    1.1593    2.5327 S   0  0  0  0  0  0  0  0  0  0  0  0
    2.6499    0.4594    2.6256 O   0  0  0  0  0  0  0  0  0  0  0  0
    1.1734    2.1453    1.5388 O   0  0  0  0  0  0  0  0  0  0  0  0
    1.1629    1.9416    4.0909 C   0  0  0  0  0  0  0  0  0  0  0  0
    0.3492    3.0552    4.1801 C   0  0  0  0  0  0  0  0  0  0  0  0
    0.1494    3.6711    5.4042 C   0  0  0  0  0  0  0  0  0  0  0  0
    0.7646    3.1707    6.5387 C   0  0  0  0  0  0  0  0  0  0  0  0
    1.5790    2.0551    6.4483 C   0  0  0  0  0  0  0  0  0  0  0  0
    1.7732    1.4378    5.2240 C   0  0  0  0  0  0  0  0  0  0  0  0
    2.1800    1.5657    7.5548 F   0  0  0  0  0  0  0  0  0  0  0  0
   -0.6454    4.7601    5.4909 F   0  0  0  0  0  0  0  0  0  0  0  0
    0.5288   -2.7242    3.0737 C   0  0  0  0  0  0  0  0  0  0  0  0
    0.7546   -3.8954    3.3467 O   0  0  0  0  0  0  0  0  0  0  0  0
    0.3501   -1.9106    3.9699 O   0  0  0  0  0  1  0  0  0  0  0  0
    0.6084   -3.7387   -1.6687 F   0  0  0  0  0  0  0  0  0  0  0  0
    1.0849    1.3805   -0.4186 H   0  0  0  0  0  0  0  0  0  0  0  0
   -0.4294    1.0056   -1.2756 H   0  0  0  0  0  0  0  0  0  0  0  0
   -0.4649    1.4154    0.4562 H   0  0  0  0  0  0  0  0  0  0  0  0
    0.3214   -1.1710   -2.0180 H   0  0  0  0  0  0  0  0  0  0  0  0
    0.6860   -4.2852    0.8750 H   0  0  0  0  0  0  0  0  0  0  0  0
   -0.1307    3.4453    3.2948 H   0  0  0  0  0  0  0  0  0  0  0  0
    0.6096    3.6507    7.4937 H   0  0  0  0  0  0  0  0  0  0  0  0
    2.4050    0.5647    5.1540 H   0  0  0  0  0  0  0  0  0  0  0  0
  1  2  1  0  0  0  0
  1 24  1  0  0  0  0
  1 25  1  0  0  0  0
  1 26  1  0  0  0  0
  2  7  2  0  0  0  0
  2  3  1  0  0  0  0
  3  4  2  0  0  0  0
  3 27  1  0  0  0  0
  4  5  1  0  0  0  0
  4 23  1  0  0  0  0
  5  6  2  0  0  0  0
  5 28  1  0  0  0  0
  6  7  1  0  0  0  0
  6 20  1  0  0  0  0
  7  8  1  0  0  0  0
  8  9  1  0  0  0  0
  9 10  2  0  0  0  0
  9 11  2  0  0  0  0
  9 12  1  0  0  0  0
 12 17  2  0  0  0  0
 12 13  1  0  0  0  0
 13 14  2  0  0  0  0
 13 29  1  0  0  0  0
 14 15  1  0  0  0  0
 14 19  1  0  0  0  0
 15 16  2  0  0  0  0
 15 30  1  0  0  0  0
 16 17  1  0  0  0  0
 16 18  1  0  0  0  0
 17 31  1  0  0  0  0
 20 21  2  0  0  0  0
 20 22  1  0  0  0  0
M  END
$$$$
ZINC63154153
 OpenBabel01252620473D

 34 34  0  0  0  0  0  0  0  0999 V2000
   -0.0187    1.5258    0.0104 C   0  0  0  0  0  0  0  0  0  0  0  0
    0.0021   -0.0041    0.0020 C   0  0  0  0  0  0  0  0  0  0  0  0
    0.6709   -0.4649   -1.1737 O   0  0  0  0  0  0  0  0  0  0  0  0
    0.7457   -1.8880   -1.2798 C   0  0  0  0  0  0  0  0  0  0  0  0
    1.4779   -2.2655   -2.5691 C   0  0  0  0  0  0  0  0  0  0  0  0
    1.5728   -4.0720   -2.7037 S   0  0  0  0  0  0  0  0  0  0  0  0
    2.4263   -4.5939   -1.6945 O   0  0  0  0  0  0  0  0  0  0  0  0
    0.2763   -4.6164   -2.9088 O   0  0  0  0  0  0  0  0  0  0  0  0
    2.3778   -4.3512   -4.1238 N   0  0  0  0  0  2  0  0  0  0  0  0
    2.6265   -5.6617   -4.5399 C   0  0  0  0  0  0  0  0  0  0  0  0
    2.1943   -6.7315   -3.7666 C   0  0  0  0  0  0  0  0  0  0  0  0
    2.4413   -8.0256   -4.1809 C   0  0  0  0  0  0  0  0  0  0  0  0
    3.1182   -8.2574   -5.3643 C   0  0  0  0  0  0  0  0  0  0  0  0
    3.5502   -7.1953   -6.1370 C   0  0  0  0  0  0  0  0  0  0  0  0
    3.3019   -5.8978   -5.7312 C   0  0  0  0  0  0  0  0  0  0  0  0
    3.8866   -4.4457   -6.7919 Br  0  0  0  0  0  0  0  0  0  0  0  0
    3.4315   -9.9103   -5.8884 S   0  0  0  0  0  0  0  0  0  0  0  0
    4.5581   -9.8556   -6.7528 O   0  0  0  0  0  0  0  0  0  0  0  0
    3.4062  -10.7185   -4.7200 O   0  0  0  0  0  0  0  0  0  0  0  0
    2.1444  -10.3815   -6.8178 N   0  0  0  0  0  0  0  0  0  0  0  0
    1.0039    1.9031    0.0027 H   0  0  0  0  0  0  0  0  0  0  0  0
   -0.5459    1.8868   -0.8726 H   0  0  0  0  0  0  0  0  0  0  0  0
   -0.5289    1.8773    0.9072 H   0  0  0  0  0  0  0  0  0  0  0  0
    0.5293   -0.3651    0.8851 H   0  0  0  0  0  0  0  0  0  0  0  0
   -1.0205   -0.3814    0.0098 H   0  0  0  0  0  0  0  0  0  0  0  0
    1.2883   -2.2882   -0.4233 H   0  0  0  0  0  0  0  0  0  0  0  0
   -0.2614   -2.3044   -1.2986 H   0  0  0  0  0  0  0  0  0  0  0  0
    0.9353   -1.8654   -3.4255 H   0  0  0  0  0  0  0  0  0  0  0  0
    2.4851   -1.8492   -2.5502 H   0  0  0  0  0  0  0  0  0  0  0  0
    1.6658   -6.5514   -2.8420 H   0  0  0  0  0  0  0  0  0  0  0  0
    2.1056   -8.8576   -3.5797 H   0  0  0  0  0  0  0  0  0  0  0  0
    4.0789   -7.3798   -7.0605 H   0  0  0  0  0  0  0  0  0  0  0  0
    1.4090   -9.7686   -6.9743 H   0  0  0  0  0  0  0  0  0  0  0  0
    2.1258  -11.2704   -7.2056 H   0  0  0  0  0  0  0  0  0  0  0  0
  1  2  1  0  0  0  0
  1 21  1  0  0  0  0
  1 22  1  0  0  0  0
  1 23  1  0  0  0  0
  2  3  1  0  0  0  0
  2 24  1  0  0  0  0
  2 25  1  0  0  0  0
  3  4  1  0  0  0  0
  4  5  1  0  0  0  0
  4 26  1  0  0  0  0
  4 27  1  0  0  0  0
  5  6  1  0  0  0  0
  5 28  1  0  0  0  0
  5 29  1  0  0  0  0
  6  7  2  0  0  0  0
  6  8  2  0  0  0  0
  6  9  1  0  0  0  0
  9 10  1  0  0  0  0
 10 15  2  0  0  0  0
 10 11  1  0  0  0  0
 11 12  2  0  0  0  0
 11 30  1  0  0  0  0
 12 13  1  0  0  0  0
 12 31  1  0  0  0  0
 13 14  2  0  0  0  0
 13 17  1  0  0  0  0
 14 15  1  0  0  0  0
 14 32  1  0  0  0  0
 15 16  1  0  0  0  0
 17 18  2  0  0  0  0
 17 19  2  0  0  0  0
 17 20  1  0  0  0  0
 20 33  1  0  0  0  0
 20 34  1  0  0  0  0
M  END
$$$$
ZINC37630352
 OpenBabel01252620473D

 25 26  0  0  0  0  0  0  0  0999 V2000
   -0.0184    1.5028    0.0103 C   0  0  0  0  0  0  0  0  0  0  0  0
    0.0021   -0.0041    0.0020 C   0  0  0  0  0  0  0  0  0  0  0  0
    0.0203   -0.6158    1.0486 O   0  0  0  0  0  0  0  0  0  0  0  0
    0.0001   -0.6716   -1.1688 N   0  0  0  0  0  0  0  0  0  0  0  0
   -0.0137   -0.0854   -2.4184 C   0  0  0  0  0  0  0  0  0  0  0  0
   -0.0112   -1.0365   -3.3662 C   0  0  0  0  0  0  0  0  0  0  0  0
    0.0055   -2.3344   -2.6775 C   0  0  0  0  0  0  0  0  0  0  0  0
    0.0176   -2.0492   -1.3013 C   0  0  0  0  0  0  0  0  0  0  0  0
    0.0401   -3.0939   -0.3863 C   0  0  0  0  0  0  0  0  0  0  0  0
    0.0539   -4.3987   -0.8317 C   0  0  0  0  0  0  0  0  0  0  0  0
    0.0458   -4.6816   -2.1905 C   0  0  0  0  0  0  0  0  0  0  0  0
    0.0150   -3.6591   -3.1142 C   0  0  0  0  0  0  0  0  0  0  0  0
    0.0656   -6.4792   -2.7773 Br  0  0  0  0  0  0  0  0  0  0  0  0
   -0.0220   -0.8360   -4.7127 O   0  0  0  0  0  0  0  0  0  0  0  0
    1.3904   -0.3503   -5.3139 P   0  0  0  0  0  0  0  0  0  0  0  0
    1.8645    0.9375   -4.5581 O   0  0  0  0  0  0  0  0  0  0  0  0
    2.4543   -1.4854   -5.1297 O   0  0  0  0  0  1  0  0  0  0  0  0
    1.2267   -0.0305   -6.8388 O   0  0  0  0  0  1  0  0  0  0  0  0
    1.0042    1.8801    0.0026 H   0  0  0  0  0  0  0  0  0  0  0  0
   -0.5455    1.8639   -0.8728 H   0  0  0  0  0  0  0  0  0  0  0  0
   -0.5286    1.8543    0.9071 H   0  0  0  0  0  0  0  0  0  0  0  0
   -0.0249    0.9782   -2.6056 H   0  0  0  0  0  0  0  0  0  0  0  0
    0.0473   -2.8844    0.6732 H   0  0  0  0  0  0  0  0  0  0  0  0
    0.0714   -5.2080   -0.1168 H   0  0  0  0  0  0  0  0  0  0  0  0
    0.0100   -3.8822   -4.1709 H   0  0  0  0  0  0  0  0  0  0  0  0
  1  2  1  0  0  0  0
  1 19  1  0  0  0  0
  1 20  1  0  0  0  0
  1 21  1  0  0  0  0
  2  3  2  0  0  0  0
  2  4  1  0  0  0  0
  4  8  1  0  0  0  0
  4  5  1  0  0  0  0
  5  6  2  0  0  0  0
  5 22  1  0  0  0  0
  6  7  1  0  0  0  0
  6 14  1  0  0  0  0
  7 12  2  0  0  0  0
  7  8  1  0  0  0  0
  8  9  2  0  0  0  0
  9 10  1  0  0  0  0
  9 23  1  0  0  0  0
 10 11  2  0  0  0  0
 10 24  1  0  0  0  0
 11 12  1  0  0  0  0
 11 13  1  0  0  0  0
 12 25  1  0  0  0  0
 14 15  1  0  0  0  0
 15 16  2  0  0  0  0
 15 17  1  0  0  0  0
 15 18  1  0  0  0  0
M  END
$$$$
ZINC00134207
 OpenBabel01252620473D

 38 39  0  0  0  0  0  0  0  0999 V2000
    2.4758    7.8786    0.2009 C   0  0  0  0  0  0  0  0  0  0  0  0
    2.4799    9.2558    0.3020 C   0  0  0  0  0  0  0  0  0  0  0  0
    3.6769    9.9482    0.2882 C   0  0  0  0  0  0  0  0  0  0  0  0
    4.8738    9.2641    0.1784 C   0  0  0  0  0  0  0  0  0  0  0  0
    4.8772    7.8865    0.0822 C   0  0  0  0  0  0  0  0  0  0  0  0
    3.6765    7.1879    0.0958 C   0  0  0  0  0  0  0  0  0  0  0  0
    3.6763    5.7937   -0.0019 N   0  0  0  0  0  0  0  0  0  0  0  0
    4.6647    5.0780    0.5701 C   0  0  0  0  0  0  0  0  0  0  0  0
    5.5999    5.6471    1.0984 O   0  0  0  0  0  0  0  0  0  0  0  0
    4.6115    3.6029    0.5552 C   0  0  0  0  0  0  0  0  0  0  0  0
    5.5964    2.8896    1.1252 C   0  0  0  0  0  0  0  0  0  0  0  0
    5.5433    1.4158    1.1103 C   0  0  0  0  0  0  0  0  0  0  0  0
    4.6088    0.8471    0.5825 O   0  0  0  0  0  0  0  0  0  0  0  0
    3.6772   11.7059    0.4114 S   0  0  0  0  0  0  0  0  0  0  0  0
    2.4619   12.0683    1.0525 O   0  0  0  0  0  0  0  0  0  0  0  0
    4.9493   12.0769    0.9245 O   0  0  0  0  0  0  0  0  0  0  0  0
    3.5958   12.3047   -1.1304 N   0  0  0  0  0  0  0  0  0  0  0  0
    4.8186   12.5888   -1.8982 C   0  0  0  0  0  0  0  0  0  0  0  0
    4.6889   11.9134   -3.2729 C   0  0  0  0  0  0  0  0  0  0  0  0
    3.4548   12.3101   -3.8757 O   0  0  0  0  0  0  0  0  0  0  0  0
    2.2918   11.9046   -3.1498 C   0  0  0  0  0  0  0  0  0  0  0  0
    2.2987   12.5743   -1.7708 C   0  0  0  0  0  0  0  0  0  0  0  0
    1.5404    7.3388    0.2076 H   0  0  0  0  0  0  0  0  0  0  0  0
    1.5469    9.7931    0.3879 H   0  0  0  0  0  0  0  0  0  0  0  0
    5.8069    9.8079    0.1683 H   0  0  0  0  0  0  0  0  0  0  0  0
    5.8123    7.3529   -0.0032 H   0  0  0  0  0  0  0  0  0  0  0  0
    2.9648    5.3413   -0.4815 H   0  0  0  0  0  0  0  0  0  0  0  0
    3.7806    3.0972    0.0859 H   0  0  0  0  0  0  0  0  0  0  0  0
    6.4273    3.3953    1.5946 H   0  0  0  0  0  0  0  0  0  0  0  0
    4.9310   13.6656   -2.0243 H   0  0  0  0  0  0  0  0  0  0  0  0
    5.6844   12.1880   -1.3712 H   0  0  0  0  0  0  0  0  0  0  0  0
    4.7034   10.8302   -3.1520 H   0  0  0  0  0  0  0  0  0  0  0  0
    5.5196   12.2200   -3.9085 H   0  0  0  0  0  0  0  0  0  0  0  0
    2.2976   10.8214   -3.0285 H   0  0  0  0  0  0  0  0  0  0  0  0
    1.3977   12.2050   -3.6960 H   0  0  0  0  0  0  0  0  0  0  0  0
    1.4950   12.1639   -1.1594 H   0  0  0  0  0  0  0  0  0  0  0  0
    2.1615   13.6497   -1.8837 H   0  0  0  0  0  0  0  0  0  0  0  0
    6.5315    0.7001    1.6823 O   0  0  0  0  0  1  0  0  0  0  0  0
  1  6  2  0  0  0  0
  1  2  1  0  0  0  0
  1 23  1  0  0  0  0
  2  3  2  0  0  0  0
  2 24  1  0  0  0  0
  3  4  1  0  0  0  0
  3 14  1  0  0  0  0
  4  5  2  0  0  0  0
  4 25  1  0  0  0  0
  5  6  1  0  0  0  0
  5 26  1  0  0  0  0
  6  7  1  0  0  0  0
  7  8  1  0  0  0  0
  7 27  1  0  0  0  0
  8  9  2  0  0  0  0
  8 10  1  0  0  0  0
 10 11  2  0  0  0  0
 10 28  1  0  0  0  0
 11 12  1  0  0  0  0
 11 29  1  0  0  0  0
 12 13  2  0  0  0  0
 12 38  1  0  0  0  0
 14 15  2  0  0  0  0
 14 16  2  0  0  0  0
 14 17  1  0  0  0  0
 17 22  1  0  0  0  0
 17 18  1  0  0  0  0
 18 19  1  0  0  0  0
 18 30  1  0  0  0  0
 18 31  1  0  0  0  0
 19 20  1  0  0  0  0
 19 32  1  0  0  0  0
 19 33  1  0  0  0  0
 20 21  1  0  0  0  0
 21 22  1  0  0  0  0
 21 34  1  0  0  0  0
 21 35  1  0  0  0  0
 22 36  1  0  0  0  0
 22 37  1  0  0  0  0
M  END
$$$$
ZINC40055036
 OpenBabel01252620473D

 64 67  0  0  1  0  0  0  0  0999 V2000
   -2.1258   -0.4672   -4.6103 C   0  0  0  0  0  0  0  0  0  0  0  0
   -1.5523   -1.3920   -3.5348 C   0  0  0  0  0  0  0  0  0  0  0  0
   -2.2820   -1.2180   -2.3185 O   0  0  0  0  0  0  0  0  0  0  0  0
   -1.8381   -1.8997   -1.2298 C   0  0  0  0  0  0  0  0  0  0  0  0
   -0.6707   -2.6457   -1.3054 C   0  0  0  0  0  0  0  0  0  0  0  0
   -0.2214   -3.3372   -0.1974 C   0  0  0  0  0  0  0  0  0  0  0  0
   -0.9341   -3.2865    0.9866 C   0  0  0  0  0  0  0  0  0  0  0  0
   -2.0978   -2.5443    1.0644 C   0  0  0  0  0  0  0  0  0  0  0  0
   -2.5484   -1.8462   -0.0395 C   0  0  0  0  0  0  0  0  0  0  0  0
   -3.8136   -1.0323    0.0478 C   0  0  2  0  0  0  0  0  0  0  0  0
   -3.6860   -0.0846   -0.4754 H   0  0  0  0  0  0  0  0  0  0  0  0
   -4.1722   -0.7829    1.4942 C   0  0  0  0  0  0  0  0  0  0  0  0
   -5.3865   -1.3452    1.6981 C   0  0  0  0  0  0  0  0  0  0  0  0
   -5.8535   -1.9623    0.4386 C   0  0  0  0  0  0  0  0  0  0  0  0
   -6.9095   -2.5462    0.2978 O   0  0  0  0  0  0  0  0  0  0  0  0
   -4.9359   -1.7807   -0.5303 N   0  0  0  0  0  0  0  0  0  0  0  0
   -5.0386   -2.2473   -1.9153 C   0  0  0  0  0  0  0  0  0  0  0  0
   -4.5682   -3.7007   -2.0000 C   0  0  0  0  0  0  0  0  0  0  0  0
   -4.5721   -4.1537   -3.4614 C   0  0  0  0  0  0  0  0  0  0  0  0
   -4.1327   -5.5111   -3.5405 O   0  0  0  0  0  0  0  0  0  0  0  0
   -6.0649   -1.3428    2.8685 O   0  5  0  0  0  0  0  0  0  0  0  0
   -3.3612   -0.0701    2.4855 C   0  0  0  0  0  0  0  0  0  0  0  0
   -2.9155   -0.6654    3.4485 O   0  0  0  0  0  0  0  0  0  0  0  0
   -3.0847    1.3725    2.3152 C   0  0  0  0  0  0  0  0  0  0  0  0
   -3.6948    2.0859    1.2808 C   0  0  0  0  0  0  0  0  0  0  0  0
   -3.4349    3.4316    1.1254 C   0  0  0  0  0  0  0  0  0  0  0  0
   -2.5712    4.0782    1.9909 C   0  0  0  0  0  0  0  0  0  0  0  0
   -1.9596    3.3774    3.0218 C   0  0  0  0  0  0  0  0  0  0  0  0
   -2.2176    2.0276    3.1909 C   0  0  0  0  0  0  0  0  0  0  0  0
   -1.1115    4.0180    3.8689 O   0  0  0  0  0  0  0  0  0  0  0  0
   -0.8959    5.4119    3.6397 C   0  0  0  0  0  0  0  0  0  0  0  0
    0.0657    5.9474    4.6691 C   0  0  0  0  0  0  0  0  0  0  0  0
   -0.4119    6.4485    5.8657 C   0  0  0  0  0  0  0  0  0  0  0  0
    0.4689    6.9394    6.8107 C   0  0  0  0  0  0  0  0  0  0  0  0
    1.8303    6.9293    6.5586 C   0  0  0  0  0  0  0  0  0  0  0  0
    2.3076    6.4271    5.3597 C   0  0  0  0  0  0  0  0  0  0  0  0
    1.4252    5.9319    4.4185 C   0  0  0  0  0  0  0  0  0  0  0  0
    2.6924    7.4093    7.4814 F   0  0  0  0  0  0  0  0  0  0  0  0
   -1.5150   -0.5343   -5.5106 H   0  0  0  0  0  0  0  0  0  0  0  0
   -3.1476   -0.7682   -4.8411 H   0  0  0  0  0  0  0  0  0  0  0  0
   -2.1233    0.5599   -4.2453 H   0  0  0  0  0  0  0  0  0  0  0  0
   -1.6361   -2.4277   -3.8638 H   0  0  0  0  0  0  0  0  0  0  0  0
   -0.5033   -1.1477   -3.3672 H   0  0  0  0  0  0  0  0  0  0  0  0
   -0.1139   -2.6859   -2.2300 H   0  0  0  0  0  0  0  0  0  0  0  0
    0.6871   -3.9183   -0.2559 H   0  0  0  0  0  0  0  0  0  0  0  0
   -0.5811   -3.8279    1.8519 H   0  0  0  0  0  0  0  0  0  0  0  0
   -2.6528   -2.5066    1.9901 H   0  0  0  0  0  0  0  0  0  0  0  0
   -6.0754   -2.1812   -2.2450 H   0  0  0  0  0  0  0  0  0  0  0  0
   -4.4134   -1.6251   -2.5556 H   0  0  0  0  0  0  0  0  0  0  0  0
   -3.5581   -3.7796   -1.5978 H   0  0  0  0  0  0  0  0  0  0  0  0
   -5.2402   -4.3344   -1.4213 H   0  0  0  0  0  0  0  0  0  0  0  0
   -5.5822   -4.0747   -3.8635 H   0  0  0  0  0  0  0  0  0  0  0  0
   -3.9001   -3.5199   -4.0400 H   0  0  0  0  0  0  0  0  0  0  0  0
   -4.1102   -5.8655   -4.4399 H   0  0  0  0  0  0  0  0  0  0  0  0
   -4.3695    1.5841    0.6030 H   0  0  0  0  0  0  0  0  0  0  0  0
   -3.9069    3.9820    0.3250 H   0  0  0  0  0  0  0  0  0  0  0  0
   -2.3715    5.1319    1.8642 H   0  0  0  0  0  0  0  0  0  0  0  0
   -1.7462    1.4825    3.9953 H   0  0  0  0  0  0  0  0  0  0  0  0
   -0.4786    5.5560    2.6431 H   0  0  0  0  0  0  0  0  0  0  0  0
   -1.8441    5.9438    3.7169 H   0  0  0  0  0  0  0  0  0  0  0  0
   -1.4739    6.4567    6.0620 H   0  0  0  0  0  0  0  0  0  0  0  0
    0.0955    7.3312    7.7453 H   0  0  0  0  0  0  0  0  0  0  0  0
    3.3693    6.4189    5.1619 H   0  0  0  0  0  0  0  0  0  0  0  0
    1.7975    5.5361    3.4851 H   0  0  0  0  0  0  0  0  0  0  0  0
  1  2  1  0  0  0  0
  1 39  1  0  0  0  0
  1 40  1  0  0  0  0
  1 41  1  0  0  0  0
  2  3  1  0  0  0  0
  2 42  1  0  0  0  0
  2 43  1  0  0  0  0
  3  4  1  0  0  0  0
  4  9  2  0  0  0  0
  4  5  1  0  0  0  0
  5  6  2  0  0  0  0
  5 44  1  0  0  0  0
  6  7  1  0  0  0  0
  6 45  1  0  0  0  0
  7  8  2  0  0  0  0
  7 46  1  0  0  0  0
  8  9  1  0  0  0  0
  8 47  1  0  0  0  0
  9 10  1  0  0  0  0
 10 11  1  6  0  0  0
 10 16  1  0  0  0  0
 10 12  1  0  0  0  0
 12 13  2  0  0  0  0
 12 22  1  0  0  0  0
 13 14  1  0  0  0  0
 13 21  1  0  0  0  0
 14 15  2  0  0  0  0
 14 16  1  0  0  0  0
 16 17  1  0  0  0  0
 17 18  1  0  0  0  0
 17 48  1  0  0  0  0
 17 49  1  0  0  0  0
 18 19  1  0  0  0  0
 18 50  1  0  0  0  0
 18 51  1  0  0  0  0
 19 20  1  0  0  0  0
 19 52  1  0  0  0  0
 19 53  1  0  0  0  0
 20 54  1  0  0  0  0
 22 23  2  0  0  0  0
 22 24  1  0  0  0  0
 24 29  2  0  0  0  0
 24 25  1  0  0  0  0
 25 26  2  0  0  0  0
 25 55  1  0  0  0  0
 26 27  1  0  0  0  0
 26 56  1  0  0  0  0
 27 28  2  0  0  0  0
 27 57  1  0  0  0  0
 28 29  1  0  0  0  0
 28 30  1  0  0  0  0
 29 58  1  0  0  0  0
 30 31  1  0  0  0  0
 31 32  1  0  0  0  0
 31 59  1  0  0  0  0
 31 60  1  0  0  0  0
 32 37  2  0  0  0  0
 32 33  1  0  0  0  0
 33 34  2  0  0  0  0
 33 61  1  0  0  0  0
 34 35  1  0  0  0  0
 34 62  1  0  0  0  0
 35 36  2  0  0  0  0
 35 38  1  0  0  0  0
 36 37  1  0  0  0  0
 36 63  1  0  0  0  0
 37 64  1  0  0  0  0
M  CHG  1  21  -1
M  END
$$$$
ZINC36596586
 OpenBabel01252620473D

 61 63  0  0  1  0  0  0  0  0999 V2000
    2.6285   -9.6362   -1.5410 C   0  0  0  0  0  0  0  0  0  0  0  0
    2.7934   -8.2131   -1.0735 C   0  0  0  0  0  0  0  0  0  0  0  0
    3.9399   -7.6525   -0.6487 C   0  0  0  0  0  0  0  0  0  0  0  0
    3.6400   -6.3130   -0.3098 C   0  0  0  0  0  0  0  0  0  0  0  0
    2.3280   -6.1353   -0.5478 C   0  0  0  0  0  0  0  0  0  0  0  0
    1.8216   -7.2878   -1.0157 O   0  0  0  0  0  0  0  0  0  0  0  0
    1.5583   -4.8579   -0.3314 C   0  0  0  0  0  0  0  0  0  0  0  0
    1.7070   -3.9934   -1.5048 N   0  0  0  0  0  0  0  0  0  0  0  0
    2.7889   -3.0069   -1.5554 C   0  0  2  0  0  0  0  0  0  0  0  0
    3.3490   -3.1291   -2.4824 H   0  0  0  0  0  0  0  0  0  0  0  0
    3.7107   -3.2116   -0.3809 C   0  0  0  0  0  0  0  0  0  0  0  0
    3.2123   -3.1493    0.9076 C   0  0  0  0  0  0  0  0  0  0  0  0
    4.0554   -3.3367    1.9871 C   0  0  0  0  0  0  0  0  0  0  0  0
    5.3986   -3.5863    1.7810 C   0  0  0  0  0  0  0  0  0  0  0  0
    5.9009   -3.6493    0.4896 C   0  0  0  0  0  0  0  0  0  0  0  0
    5.0515   -3.4669   -0.5924 C   0  0  0  0  0  0  0  0  0  0  0  0
    7.2217   -3.8948    0.2842 O   0  0  0  0  0  0  0  0  0  0  0  0
    2.2056   -1.6184   -1.5001 C   0  0  0  0  0  0  0  0  0  0  0  0
    1.0190   -1.4667   -1.3007 O   0  0  0  0  0  0  0  0  0  0  0  0
    3.0027   -0.5453   -1.6723 N   0  0  0  0  0  0  0  0  0  0  0  0
    2.4356    0.8044   -1.6185 C   0  0  0  0  0  0  0  0  0  0  0  0
    1.7965    1.0349   -0.2477 C   0  0  0  0  0  0  0  0  0  0  0  0
    3.5456    1.8332   -1.8432 C   0  0  0  0  0  0  0  0  0  0  0  0
    1.3727    0.9548   -2.7086 C   0  0  0  0  0  0  0  0  0  0  0  0
    0.8486   -4.1057   -2.5377 C   0  0  0  0  0  0  0  0  0  0  0  0
    0.2376   -5.1426   -2.7105 O   0  0  0  0  0  0  0  0  0  0  0  0
    0.6502   -2.9703   -3.4588 C   0  0  0  0  0  0  0  0  0  0  0  0
    1.6895   -2.0669   -3.6944 C   0  0  0  0  0  0  0  0  0  0  0  0
    1.4978   -1.0087   -4.5557 C   0  0  0  0  0  0  0  0  0  0  0  0
    0.2783   -0.8356   -5.1900 C   0  0  0  0  0  0  0  0  0  0  0  0
   -0.7573   -1.7206   -4.9658 C   0  0  0  0  0  0  0  0  0  0  0  0
   -0.5800   -2.7951   -4.1067 C   0  0  0  0  0  0  0  0  0  0  0  0
   -1.5947   -3.6690   -3.8901 O   0  5  0  0  0  0  0  0  0  0  0  0
    2.5997   -0.0520   -4.8041 N   0  0  0  0  0  4  0  0  0  0  0  0
    3.6649   -0.2002   -4.2518 O   0  0  0  0  0  0  0  0  0  0  0  0
    2.4345    0.8775   -5.5593 O   0  5  0  0  0  0  0  0  0  0  0  0
    1.5910   -9.8063   -1.8287 H   0  0  0  0  0  0  0  0  0  0  0  0
    3.2772   -9.8144   -2.3987 H   0  0  0  0  0  0  0  0  0  0  0  0
    2.8981  -10.3174   -0.7339 H   0  0  0  0  0  0  0  0  0  0  0  0
    4.9044   -8.1334   -0.5792 H   0  0  0  0  0  0  0  0  0  0  0  0
    4.3314   -5.5744    0.0679 H   0  0  0  0  0  0  0  0  0  0  0  0
    0.5037   -5.0900   -0.1825 H   0  0  0  0  0  0  0  0  0  0  0  0
    1.9453   -4.3451    0.5491 H   0  0  0  0  0  0  0  0  0  0  0  0
    2.1628   -2.9536    1.0708 H   0  0  0  0  0  0  0  0  0  0  0  0
    3.6637   -3.2876    2.9924 H   0  0  0  0  0  0  0  0  0  0  0  0
    6.0569   -3.7319    2.6247 H   0  0  0  0  0  0  0  0  0  0  0  0
    5.4394   -3.5202   -1.5989 H   0  0  0  0  0  0  0  0  0  0  0  0
    7.4393   -4.8335    0.2031 H   0  0  0  0  0  0  0  0  0  0  0  0
    3.9517   -0.6667   -1.8318 H   0  0  0  0  0  0  0  0  0  0  0  0
    2.5538    0.9277    0.5289 H   0  0  0  0  0  0  0  0  0  0  0  0
    1.3746    2.0391   -0.2077 H   0  0  0  0  0  0  0  0  0  0  0  0
    1.0057    0.3020   -0.0876 H   0  0  0  0  0  0  0  0  0  0  0  0
    4.0010    1.6690   -2.8198 H   0  0  0  0  0  0  0  0  0  0  0  0
    3.1238    2.8374   -1.8032 H   0  0  0  0  0  0  0  0  0  0  0  0
    4.3029    1.7260   -1.0666 H   0  0  0  0  0  0  0  0  0  0  0  0
    0.5819    0.2219   -2.5486 H   0  0  0  0  0  0  0  0  0  0  0  0
    0.9508    1.9591   -2.6687 H   0  0  0  0  0  0  0  0  0  0  0  0
    1.8280    0.7906   -3.6853 H   0  0  0  0  0  0  0  0  0  0  0  0
    2.6418   -2.1977   -3.2020 H   0  0  0  0  0  0  0  0  0  0  0  0
    0.1368   -0.0033   -5.8635 H   0  0  0  0  0  0  0  0  0  0  0  0
   -1.7052   -1.5788   -5.4636 H   0  0  0  0  0  0  0  0  0  0  0  0
  1  2  1  0  0  0  0
  1 37  1  0  0  0  0
  1 38  1  0  0  0  0
  1 39  1  0  0  0  0
  2  6  1  0  0  0  0
  2  3  2  0  0  0  0
  3  4  1  0  0  0  0
  3 40  1  0  0  0  0
  4  5  2  0  0  0  0
  4 41  1  0  0  0  0
  5  6  1  0  0  0  0
  5  7  1  0  0  0  0
  7  8  1  0  0  0  0
  7 42  1  0  0  0  0
  7 43  1  0  0  0  0
  8  9  1  0  0  0  0
  8 25  1  0  0  0  0
  9 10  1  6  0  0  0
  9 11  1  0  0  0  0
  9 18  1  0  0  0  0
 11 16  2  0  0  0  0
 11 12  1  0  0  0  0
 12 13  2  0  0  0  0
 12 44  1  0  0  0  0
 13 14  1  0  0  0  0
 13 45  1  0  0  0  0
 14 15  2  0  0  0  0
 14 46  1  0  0  0  0
 15 16  1  0  0  0  0
 15 17  1  0  0  0  0
 16 47  1  0  0  0  0
 17 48  1  0  0  0  0
 18 19  2  0  0  0  0
 18 20  1  0  0  0  0
 20 21  1  0  0  0  0
 20 49  1  0  0  0  0
 21 22  1  0  0  0  0
 21 23  1  0  0  0  0
 21 24  1  0  0  0  0
 22 50  1  0  0  0  0
 22 51  1  0  0  0  0
 22 52  1  0  0  0  0
 23 53  1  0  0  0  0
 23 54  1  0  0  0  0
 23 55  1  0  0  0  0
 24 56  1  0  0  0  0
 24 57  1  0  0  0  0
 24 58  1  0  0  0  0
 25 26  2  0  0  0  0
 25 27  1  0  0  0  0
 27 32  2  0  0  0  0
 27 28  1  0  0  0  0
 28 29  2  0  0  0  0
 28 59  1  0  0  0  0
 29 30  1  0  0  0  0
 29 34  1  0  0  0  0
 30 31  2  0  0  0  0
 30 60  1  0  0  0  0
 31 32  1  0  0  0  0
 31 61  1  0  0  0  0
 32 33  1  0  0  0  0
 34 35  2  0  0  0  0
 34 36  1  0  0  0  0
M  CHG  2  33  -1  36  -1
M  END
$$$$
ZINC40048588
 OpenBabel01252620473D

 56 58  0  0  1  0  0  0  0  0999 V2000
   -3.6601    1.0023    6.1764 C   0  0  0  0  0  0  0  0  0  0  0  0
   -3.8322   -0.5173    6.1303 C   0  0  0  0  0  0  0  0  0  0  0  0
   -4.8135   -0.9528    7.2204 C   0  0  0  0  0  0  0  0  0  0  0  0
   -4.3766   -0.9276    4.7605 C   0  0  0  0  0  0  0  0  0  0  0  0
   -4.4275   -2.3531    4.6757 O   0  0  0  0  0  0  0  0  0  0  0  0
   -4.8905   -2.8851    3.5164 C   0  0  0  0  0  0  0  0  0  0  0  0
   -5.2830   -2.0483    2.4776 C   0  0  0  0  0  0  0  0  0  0  0  0
   -5.7533   -2.5839    1.2999 C   0  0  0  0  0  0  0  0  0  0  0  0
   -5.8356   -3.9715    1.1490 C   0  0  0  0  0  0  0  0  0  0  0  0
   -5.4394   -4.8094    2.1959 C   0  0  0  0  0  0  0  0  0  0  0  0
   -4.9658   -4.2657    3.3685 C   0  0  0  0  0  0  0  0  0  0  0  0
   -6.3397   -4.5502   -0.1119 C   0  0  0  0  0  0  0  0  0  0  0  0
   -6.7638   -3.8212   -0.9893 O   0  0  0  0  0  0  0  0  0  0  0  0
   -6.3294   -6.0035   -0.3073 C   0  0  0  0  0  0  0  0  0  0  0  0
   -7.4099   -6.8097   -0.4247 C   0  0  0  0  0  0  0  0  0  0  0  0
   -6.9573   -8.2046   -0.6086 C   0  0  0  0  0  0  0  0  0  0  0  0
   -7.6909   -9.1636   -0.7437 O   0  0  0  0  0  0  0  0  0  0  0  0
   -5.6129   -8.2554   -0.6045 N   0  0  0  0  0  0  0  0  0  0  0  0
   -5.1103   -6.8885   -0.4231 C   0  0  1  0  0  0  0  0  0  0  0  0
   -4.5155   -6.8282    0.4883 H   0  0  0  0  0  0  0  0  0  0  0  0
   -4.2813   -6.4757   -1.6120 C   0  0  0  0  0  0  0  0  0  0  0  0
   -4.7551   -6.6902   -2.8938 C   0  0  0  0  0  0  0  0  0  0  0  0
   -3.9935   -6.3111   -3.9850 C   0  0  0  0  0  0  0  0  0  0  0  0
   -2.7594   -5.7185   -3.7944 C   0  0  0  0  0  0  0  0  0  0  0  0
   -2.2855   -5.5040   -2.5139 C   0  0  0  0  0  0  0  0  0  0  0  0
   -3.0489   -5.8771   -1.4219 C   0  0  0  0  0  0  0  0  0  0  0  0
   -2.4569   -5.6005    0.1865 Cl  0  0  0  0  0  0  0  0  0  0  0  0
   -6.3046   -7.4354   -3.1334 Cl  0  0  0  0  0  0  0  0  0  0  0  0
   -4.7952   -9.4611   -0.7600 C   0  0  0  0  0  0  0  0  0  0  0  0
   -4.4984   -9.6881   -2.2436 C   0  0  0  0  0  0  0  0  0  0  0  0
   -3.6445  -10.9472   -2.4060 C   0  0  0  0  0  0  0  0  0  0  0  0
   -3.3672  -11.1592   -3.7918 O   0  0  0  0  0  0  0  0  0  0  0  0
   -8.6997   -6.4034   -0.3806 O   0  5  0  0  0  0  0  0  0  0  0  0
   -3.2723    1.2946    7.1523 H   0  0  0  0  0  0  0  0  0  0  0  0
   -2.9611    1.3126    5.3998 H   0  0  0  0  0  0  0  0  0  0  0  0
   -4.6245    1.4823    6.0101 H   0  0  0  0  0  0  0  0  0  0  0  0
   -2.8678   -0.9973    6.2967 H   0  0  0  0  0  0  0  0  0  0  0  0
   -4.9360   -2.0354    7.1875 H   0  0  0  0  0  0  0  0  0  0  0  0
   -4.4257   -0.6605    8.1962 H   0  0  0  0  0  0  0  0  0  0  0  0
   -5.7778   -0.4728    7.0540 H   0  0  0  0  0  0  0  0  0  0  0  0
   -5.3791   -0.5198    4.6310 H   0  0  0  0  0  0  0  0  0  0  0  0
   -3.7230   -0.5402    3.9789 H   0  0  0  0  0  0  0  0  0  0  0  0
   -5.2191   -0.9766    2.5951 H   0  0  0  0  0  0  0  0  0  0  0  0
   -6.0585   -1.9332    0.4938 H   0  0  0  0  0  0  0  0  0  0  0  0
   -5.5014   -5.8818    2.0834 H   0  0  0  0  0  0  0  0  0  0  0  0
   -4.6558   -4.9122    4.1762 H   0  0  0  0  0  0  0  0  0  0  0  0
   -4.3633   -6.4785   -4.9858 H   0  0  0  0  0  0  0  0  0  0  0  0
   -2.1650   -5.4234   -4.6465 H   0  0  0  0  0  0  0  0  0  0  0  0
   -1.3210   -5.0413   -2.3656 H   0  0  0  0  0  0  0  0  0  0  0  0
   -3.8584   -9.3373   -0.2168 H   0  0  0  0  0  0  0  0  0  0  0  0
   -5.3352  -10.3201   -0.3619 H   0  0  0  0  0  0  0  0  0  0  0  0
   -5.4352   -9.8119   -2.7868 H   0  0  0  0  0  0  0  0  0  0  0  0
   -3.9584   -8.8290   -2.6417 H   0  0  0  0  0  0  0  0  0  0  0  0
   -2.7076  -10.8234   -1.8628 H   0  0  0  0  0  0  0  0  0  0  0  0
   -4.1845  -11.8063   -2.0080 H   0  0  0  0  0  0  0  0  0  0  0  0
   -2.8285  -11.9423   -3.9697 H   0  0  0  0  0  0  0  0  0  0  0  0
  1  2  1  0  0  0  0
  1 34  1  0  0  0  0
  1 35  1  0  0  0  0
  1 36  1  0  0  0  0
  2  3  1  0  0  0  0
  2  4  1  0  0  0  0
  2 37  1  0  0  0  0
  3 38  1  0  0  0  0
  3 39  1  0  0  0  0
  3 40  1  0  0  0  0
  4  5  1  0  0  0  0
  4 41  1  0  0  0  0
  4 42  1  0  0  0  0
  5  6  1  0  0  0  0
  6 11  2  0  0  0  0
  6  7  1  0  0  0  0
  7  8  2  0  0  0  0
  7 43  1  0  0  0  0
  8  9  1  0  0  0  0
  8 44  1  0  0  0  0
  9 10  2  0  0  0  0
  9 12  1  0  0  0  0
 10 11  1  0  0  0  0
 10 45  1  0  0  0  0
 11 46  1  0  0  0  0
 12 13  2  0  0  0  0
 12 14  1  0  0  0  0
 14 19  1  0  0  0  0
 14 15  2  0  0  0  0
 15 16  1  0  0  0  0
 15 33  1  0  0  0  0
 16 17  2  0  0  0  0
 16 18  1  0  0  0  0
 18 19  1  0  0  0  0
 18 29  1  0  0  0  0
 19 20  1  1  0  0  0
 19 21  1  0  0  0  0
 21 26  2  0  0  0  0
 21 22  1  0  0  0  0
 22 23  2  0  0  0  0
 22 28  1  0  0  0  0
 23 24  1  0  0  0  0
 23 47  1  0  0  0  0
 24 25  2  0  0  0  0
 24 48  1  0  0  0  0
 25 26  1  0  0  0  0
 25 49  1  0  0  0  0
 26 27  1  0  0  0  0
 29 30  1  0  0  0  0
 29 50  1  0  0  0  0
 29 51  1  0  0  0  0
 30 31  1  0  0  0  0
 30 52  1  0  0  0  0
 30 53  1  0  0  0  0
 31 32  1  0  0  0  0
 31 54  1  0  0  0  0
 31 55  1  0  0  0  0
 32 56  1  0  0  0  0
M  CHG  1  33  -1
M  END
$$$$
ZINC35443863
 OpenBabel01252620473D

 64 67  0  0  1  0  0  0  0  0999 V2000
   -0.0157    1.3058    0.0092 C   0  0  0  0  0  0  0  0  0  0  0  0
    0.0021   -0.0041    0.0020 C   0  0  0  0  0  0  0  0  0  0  0  0
   -1.2926   -0.7753    0.0102 C   0  0  0  0  0  0  0  0  0  0  0  0
   -1.2235   -1.8324   -0.9488 O   0  0  0  0  0  0  0  0  0  0  0  0
   -2.3178   -2.6293   -1.0686 C   0  0  0  0  0  0  0  0  0  0  0  0
   -3.4374   -2.3950   -0.2832 C   0  0  0  0  0  0  0  0  0  0  0  0
   -4.5485   -3.2062   -0.4071 C   0  0  0  0  0  0  0  0  0  0  0  0
   -4.5456   -4.2510   -1.3130 C   0  0  0  0  0  0  0  0  0  0  0  0
   -3.4312   -4.4868   -2.0964 C   0  0  0  0  0  0  0  0  0  0  0  0
   -2.3194   -3.6748   -1.9802 C   0  0  0  0  0  0  0  0  0  0  0  0
   -3.4314   -5.6266   -3.0822 C   0  0  1  0  0  0  0  0  0  0  0  0
   -2.6561   -5.4727   -3.8328 H   0  0  0  0  0  0  0  0  0  0  0  0
   -3.2054   -6.9359   -2.3627 C   0  0  0  0  0  0  0  0  0  0  0  0
   -4.2982   -7.7001   -2.5905 C   0  0  0  0  0  0  0  0  0  0  0  0
   -5.2481   -6.9498   -3.4367 C   0  0  0  0  0  0  0  0  0  0  0  0
   -6.3249   -7.3671   -3.8147 O   0  0  0  0  0  0  0  0  0  0  0  0
   -4.7448   -5.7351   -3.7281 N   0  0  0  0  0  0  0  0  0  0  0  0
   -5.3927   -4.7046   -4.5433 C   0  0  0  0  0  0  0  0  0  0  0  0
   -4.9924   -4.8871   -6.0087 C   0  0  0  0  0  0  0  0  0  0  0  0
   -5.6420   -3.8538   -6.8261 N   0  0  0  0  0  0  0  0  0  0  0  0
   -5.1267   -2.5177   -6.4934 C   0  0  0  0  0  0  0  0  0  0  0  0
   -5.8710   -1.4684   -7.3234 C   0  0  0  0  0  0  0  0  0  0  0  0
   -5.7243   -1.7749   -8.7126 O   0  0  0  0  0  0  0  0  0  0  0  0
   -6.2165   -3.0687   -9.0718 C   0  0  0  0  0  0  0  0  0  0  0  0
   -5.4758   -4.1342   -8.2596 C   0  0  0  0  0  0  0  0  0  0  0  0
   -4.4904   -8.9540   -2.1181 O   0  5  0  0  0  0  0  0  0  0  0  0
   -2.0270   -7.3073   -1.5702 C   0  0  0  0  0  0  0  0  0  0  0  0
   -1.9708   -8.4023   -1.0386 O   0  0  0  0  0  0  0  0  0  0  0  0
   -0.9195   -6.3624   -1.4184 C   0  0  0  0  0  0  0  0  0  0  0  0
    0.1648   -6.7042   -0.6891 C   0  0  0  0  0  0  0  0  0  0  0  0
    1.2777   -5.7546   -0.5367 C   0  0  0  0  0  0  0  0  0  0  0  0
    1.2145   -4.4941   -1.1407 C   0  0  0  0  0  0  0  0  0  0  0  0
    2.2616   -3.6096   -0.9926 C   0  0  0  0  0  0  0  0  0  0  0  0
    3.3736   -3.9659   -0.2491 C   0  0  0  0  0  0  0  0  0  0  0  0
    3.4439   -5.2110    0.3516 C   0  0  0  0  0  0  0  0  0  0  0  0
    2.4027   -6.1048    0.2179 C   0  0  0  0  0  0  0  0  0  0  0  0
    0.9122    1.8585    0.0033 H   0  0  0  0  0  0  0  0  0  0  0  0
   -0.9582    1.8330    0.0166 H   0  0  0  0  0  0  0  0  0  0  0  0
    0.9446   -0.5313   -0.0098 H   0  0  0  0  0  0  0  0  0  0  0  0
   -1.4592   -1.1950    1.0023 H   0  0  0  0  0  0  0  0  0  0  0  0
   -2.1152   -0.1069   -0.2443 H   0  0  0  0  0  0  0  0  0  0  0  0
   -3.4399   -1.5794    0.4247 H   0  0  0  0  0  0  0  0  0  0  0  0
   -5.4200   -3.0245    0.2042 H   0  0  0  0  0  0  0  0  0  0  0  0
   -5.4154   -4.8841   -1.4084 H   0  0  0  0  0  0  0  0  0  0  0  0
   -1.4507   -3.8566   -2.5956 H   0  0  0  0  0  0  0  0  0  0  0  0
   -6.4749   -4.7934   -4.4484 H   0  0  0  0  0  0  0  0  0  0  0  0
   -5.0776   -3.7190   -4.2006 H   0  0  0  0  0  0  0  0  0  0  0  0
   -3.9102   -4.7983   -6.1035 H   0  0  0  0  0  0  0  0  0  0  0  0
   -5.3075   -5.8727   -6.3513 H   0  0  0  0  0  0  0  0  0  0  0  0
   -5.2832   -2.3209   -5.4328 H   0  0  0  0  0  0  0  0  0  0  0  0
   -4.0614   -2.4719   -6.7194 H   0  0  0  0  0  0  0  0  0  0  0  0
   -6.9282   -1.4776   -7.0583 H   0  0  0  0  0  0  0  0  0  0  0  0
   -5.4532   -0.4819   -7.1222 H   0  0  0  0  0  0  0  0  0  0  0  0
   -7.2838   -3.1244   -8.8576 H   0  0  0  0  0  0  0  0  0  0  0  0
   -6.0487   -3.2396  -10.1352 H   0  0  0  0  0  0  0  0  0  0  0  0
   -4.4160   -4.1142   -8.5138 H   0  0  0  0  0  0  0  0  0  0  0  0
   -5.8871   -5.1174   -8.4882 H   0  0  0  0  0  0  0  0  0  0  0  0
   -0.9694   -5.3919   -1.8896 H   0  0  0  0  0  0  0  0  0  0  0  0
    0.2147   -7.6747   -0.2180 H   0  0  0  0  0  0  0  0  0  0  0  0
    0.3479   -4.2149   -1.7216 H   0  0  0  0  0  0  0  0  0  0  0  0
    2.2144   -2.6363   -1.4582 H   0  0  0  0  0  0  0  0  0  0  0  0
    4.1909   -3.2688   -0.1375 H   0  0  0  0  0  0  0  0  0  0  0  0
    4.3149   -5.4815    0.9301 H   0  0  0  0  0  0  0  0  0  0  0  0
    2.4572   -7.0743    0.6906 H   0  0  0  0  0  0  0  0  0  0  0  0
  1  2  2  0  0  0  0
  1 37  1  0  0  0  0
  1 38  1  0  0  0  0
  2  3  1  0  0  0  0
  2 39  1  0  0  0  0
  3  4  1  0  0  0  0
  3 40  1  0  0  0  0
  3 41  1  0  0  0  0
  4  5  1  0  0  0  0
  5 10  2  0  0  0  0
  5  6  1  0  0  0  0
  6  7  2  0  0  0  0
  6 42  1  0  0  0  0
  7  8  1  0  0  0  0
  7 43  1  0  0  0  0
  8  9  2  0  0  0  0
  8 44  1  0  0  0  0
  9 10  1  0  0  0  0
  9 11  1  0  0  0  0
 10 45  1  0  0  0  0
 11 12  1  6  0  0  0
 11 17  1  0  0  0  0
 11 13  1  0  0  0  0
 13 14  2  0  0  0  0
 13 27  1  0  0  0  0
 14 15  1  0  0  0  0
 14 26  1  0  0  0  0
 15 16  2  0  0  0  0
 15 17  1  0  0  0  0
 17 18  1  0  0  0  0
 18 19  1  0  0  0  0
 18 46  1  0  0  0  0
 18 47  1  0  0  0  0
 19 20  1  0  0  0  0
 19 48  1  0  0  0  0
 19 49  1  0  0  0  0
 20 25  1  0  0  0  0
 20 21  1  0  0  0  0
 21 22  1  0  0  0  0
 21 50  1  0  0  0  0
 21 51  1  0  0  0  0
 22 23  1  0  0  0  0
 22 52  1  0  0  0  0
 22 53  1  0  0  0  0
 23 24  1  0  0  0  0
 24 25  1  0  0  0  0
 24 54  1  0  0  0  0
 24 55  1  0  0  0  0
 25 56  1  0  0  0  0
 25 57  1  0  0  0  0
 27 28  2  0  0  0  0
 27 29  1  0  0  0  0
 29 30  2  0  0  0  0
 29 58  1  0  0  0  0
 30 31  1  0  0  0  0
 30 59  1  0  0  0  0
 31 36  2  0  0  0  0
 31 32  1  0  0  0  0
 32 33  2  0  0  0  0
 32 60  1  0  0  0  0
 33 34  1  0  0  0  0
 33 61  1  0  0  0  0
 34 35  2  0  0  0  0
 34 62  1  0  0  0  0
 35 36  1  0  0  0  0
 35 63  1  0  0  0  0
 36 64  1  0  0  0  0
M  CHG  1  26  -1
M  END
$$$$
ZINC26539753
 OpenBabel01252620473D

 38 40  0  0  0  0  0  0  0  0999 V2000
    2.3665    2.0879   -0.1181 C   0  0  0  0  0  0  0  0  0  0  0  0
    1.0639    2.7169    0.0080 O   0  0  0  0  0  0  0  0  0  0  0  0
   -0.0130    1.9091   -0.0437 C   0  0  0  0  0  0  0  0  0  0  0  0
    0.1322    0.7119   -0.1900 O   0  0  0  0  0  0  0  0  0  0  0  0
   -1.3701    2.4796    0.0716 C   0  0  0  0  0  0  0  0  0  0  0  0
   -1.5401    3.8551    0.2457 C   0  0  0  0  0  0  0  0  0  0  0  0
   -2.8098    4.3823    0.3478 C   0  0  0  0  0  0  0  0  0  0  0  0
   -3.9155    3.5495    0.2886 C   0  0  0  0  0  0  0  0  0  0  0  0
   -3.7533    2.1843    0.1213 C   0  0  0  0  0  0  0  0  0  0  0  0
   -2.4885    1.6455    0.0126 C   0  0  0  0  0  0  0  0  0  0  0  0
   -5.1658    1.1337    0.0467 S   0  0  0  0  0  0  0  0  0  0  0  0
   -6.0590    1.7200   -0.8902 O   0  0  0  0  0  0  0  0  0  0  0  0
   -4.6779   -0.1935   -0.0936 O   0  0  0  0  0  0  0  0  0  0  0  0
   -5.9115    1.2102    1.5233 N   0  0  0  0  0  2  0  0  0  0  0  0
   -5.2324    0.7932    2.6717 C   0  0  0  0  0  0  0  0  0  0  0  0
   -4.5297   -0.4051    2.6667 C   0  0  0  0  0  0  0  0  0  0  0  0
   -3.8552   -0.8142    3.7994 C   0  0  0  0  0  0  0  0  0  0  0  0
   -3.8877   -0.0332    4.9470 C   0  0  0  0  0  0  0  0  0  0  0  0
   -4.5942    1.1620    4.9540 C   0  0  0  0  0  0  0  0  0  0  0  0
   -5.2646    1.5743    3.8200 C   0  0  0  0  0  0  0  0  0  0  0  0
   -3.2067   -0.4522    6.1000 N   0  0  0  0  0  0  0  0  0  0  0  0
   -2.4878   -1.5816    6.2478 C   0  0  0  0  0  0  0  0  0  0  0  0
   -2.0121   -1.6026    7.4669 N   0  0  0  0  0  0  0  0  0  0  0  0
   -2.4102   -0.5155    8.1264 C   0  0  0  0  0  0  0  0  0  0  0  0
   -3.1440    0.2196    7.3318 N   0  0  0  0  0  0  0  0  0  0  0  0
   -5.5110    4.2203    0.4241 Cl  0  0  0  0  0  0  0  0  0  0  0  0
    3.1518    2.8560   -0.0594 H   0  0  0  0  0  0  0  0  0  0  0  0
    2.4315    1.5703   -1.0865 H   0  0  0  0  0  0  0  0  0  0  0  0
    2.5030    1.3609    0.6961 H   0  0  0  0  0  0  0  0  0  0  0  0
   -0.6788    4.5047    0.2965 H   0  0  0  0  0  0  0  0  0  0  0  0
   -2.9428    5.4461    0.4784 H   0  0  0  0  0  0  0  0  0  0  0  0
   -2.3633    0.5808   -0.1181 H   0  0  0  0  0  0  0  0  0  0  0  0
   -4.5078   -1.0147    1.7754 H   0  0  0  0  0  0  0  0  0  0  0  0
   -3.3055   -1.7438    3.7943 H   0  0  0  0  0  0  0  0  0  0  0  0
   -4.6196    1.7690    5.8469 H   0  0  0  0  0  0  0  0  0  0  0  0
   -5.8145    2.5038    3.8257 H   0  0  0  0  0  0  0  0  0  0  0  0
   -2.3297   -2.3365    5.4919 H   0  0  0  0  0  0  0  0  0  0  0  0
   -2.1658   -0.2793    9.1515 H   0  0  0  0  0  0  0  0  0  0  0  0
  1  2  1  0  0  0  0
  1 27  1  0  0  0  0
  1 28  1  0  0  0  0
  1 29  1  0  0  0  0
  2  3  1  0  0  0  0
  3  4  2  0  0  0  0
  3  5  1  0  0  0  0
  5 10  2  0  0  0  0
  5  6  1  0  0  0  0
  6  7  2  0  0  0  0
  6 30  1  0  0  0  0
  7  8  1  0  0  0  0
  7 31  1  0  0  0  0
  8  9  2  0  0  0  0
  8 26  1  0  0  0  0
  9 10  1  0  0  0  0
  9 11  1  0  0  0  0
 10 32  1  0  0  0  0
 11 12  2  0  0  0  0
 11 13  2  0  0  0  0
 11 14  1  0  0  0  0
 14 15  1  0  0  0  0
 15 20  2  0  0  0  0
 15 16  1  0  0  0  0
 16 17  2  0  0  0  0
 16 33  1  0  0  0  0
 17 18  1  0  0  0  0
 17 34  1  0  0  0  0
 18 19  2  0  0  0  0
 18 21  1  0  0  0  0
 19 20  1  0  0  0  0
 19 35  1  0  0  0  0
 20 36  1  0  0  0  0
 21 25  1  0  0  0  0
 21 22  1  0  0  0  0
 22 23  2  0  0  0  0
 22 37  1  0  0  0  0
 23 24  1  0  0  0  0
 24 25  2  0  0  0  0
 24 38  1  0  0  0  0
M  END
$$$$
ZINC13233146
 OpenBabel01252620473D

 46 48  0  0  0  0  0  0  0  0999 V2000
    1.6923    3.2472    1.1441 C   0  0  0  0  0  0  0  0  0  0  0  0
    2.3557    4.3829    0.7290 C   0  0  0  0  0  0  0  0  0  0  0  0
    3.2639    5.0046    1.5711 C   0  0  0  0  0  0  0  0  0  0  0  0
    3.5068    4.4925    2.8358 C   0  0  0  0  0  0  0  0  0  0  0  0
    2.8450    3.3604    3.2629 C   0  0  0  0  0  0  0  0  0  0  0  0
    1.9291    2.7303    2.4188 C   0  0  0  0  0  0  0  0  0  0  0  0
    1.2171    1.5162    2.8711 C   0  0  0  0  0  0  0  0  0  0  0  0
    1.5486    0.7488    3.8832 N   0  0  0  0  0  0  0  0  0  0  0  0
    0.7104   -0.2191    3.9930 N   0  0  0  0  0  0  0  0  0  0  0  0
   -0.2114   -0.1257    3.0609 C   0  0  0  0  0  0  0  0  0  0  0  0
    0.0819    0.9776    2.3108 N   0  0  0  0  0  0  0  0  0  0  0  0
   -0.6612    1.4851    1.1548 C   0  0  0  0  0  0  0  0  0  0  0  0
   -0.1482    0.8087   -0.1182 C   0  0  0  0  0  0  0  0  0  0  0  0
   -0.9126    1.3308   -1.3074 C   0  0  0  0  0  0  0  0  0  0  0  0
   -1.7788    2.1589   -1.1527 O   0  0  0  0  0  0  0  0  0  0  0  0
   -1.5702   -1.2215    2.8213 S   0  0  0  0  0  0  0  0  0  0  0  0
   -1.2751   -2.3885    4.1730 C   0  0  0  0  0  0  0  0  0  0  0  0
   -2.3467   -3.4481    4.1648 C   0  0  0  0  0  0  0  0  0  0  0  0
   -3.2236   -3.4173    3.3275 O   0  0  0  0  0  0  0  0  0  0  0  0
   -2.3306   -4.4300    5.0879 N   0  0  0  0  0  0  0  0  0  0  0  0
   -3.2535   -5.4799    5.0094 C   0  0  0  0  0  0  0  0  0  0  0  0
   -3.8913   -5.7532    3.8103 C   0  0  0  0  0  0  0  0  0  0  0  0
   -4.8070   -6.8039    3.7359 C   0  0  0  0  0  0  0  0  0  0  0  0
   -5.0819   -7.5668    4.8734 C   0  0  0  0  0  0  0  0  0  0  0  0
   -4.4458   -7.2837    6.0639 C   0  0  0  0  0  0  0  0  0  0  0  0
   -3.5342   -6.2449    6.1366 C   0  0  0  0  0  0  0  0  0  0  0  0
   -2.7383   -5.8958    7.6394 Cl  0  0  0  0  0  0  0  0  0  0  0  0
   -5.4864   -7.1054    2.4598 C   0  0  0  0  0  0  0  0  0  0  0  0
   -5.2459   -6.4408    1.4718 O   0  0  0  0  0  0  0  0  0  0  0  0
    3.9153    6.1136    1.1575 F   0  0  0  0  0  0  0  0  0  0  0  0
    0.9877    2.7611    0.4855 H   0  0  0  0  0  0  0  0  0  0  0  0
    2.1701    4.7860   -0.2556 H   0  0  0  0  0  0  0  0  0  0  0  0
    4.2159    4.9807    3.4879 H   0  0  0  0  0  0  0  0  0  0  0  0
    3.0353    2.9620    4.2485 H   0  0  0  0  0  0  0  0  0  0  0  0
   -0.5190    2.5629    1.0761 H   0  0  0  0  0  0  0  0  0  0  0  0
   -1.7217    1.2667    1.2801 H   0  0  0  0  0  0  0  0  0  0  0  0
   -0.2905   -0.2691   -0.0395 H   0  0  0  0  0  0  0  0  0  0  0  0
    0.9123    1.0270   -0.2435 H   0  0  0  0  0  0  0  0  0  0  0  0
   -0.2998   -2.8571    4.0419 H   0  0  0  0  0  0  0  0  0  0  0  0
   -1.2977   -1.8563    5.1239 H   0  0  0  0  0  0  0  0  0  0  0  0
   -1.6795   -4.4092    5.8067 H   0  0  0  0  0  0  0  0  0  0  0  0
   -3.6777   -5.1578    2.9350 H   0  0  0  0  0  0  0  0  0  0  0  0
   -5.7929   -8.3781    4.8206 H   0  0  0  0  0  0  0  0  0  0  0  0
   -4.6599   -7.8744    6.9423 H   0  0  0  0  0  0  0  0  0  0  0  0
   -0.6312    0.8758   -2.5385 O   0  0  0  0  0  1  0  0  0  0  0  0
   -6.3730   -8.1175    2.3914 O   0  0  0  0  0  1  0  0  0  0  0  0
  1  6  2  0  0  0  0
  1  2  1  0  0  0  0
  1 31  1  0  0  0  0
  2  3  2  0  0  0  0
  2 32  1  0  0  0  0
  3  4  1  0  0  0  0
  3 30  1  0  0  0  0
  4  5  2  0  0  0  0
  4 33  1  0  0  0  0
  5  6  1  0  0  0  0
  5 34  1  0  0  0  0
  6  7  1  0  0  0  0
  7 11  1  0  0  0  0
  7  8  2  0  0  0  0
  8  9  1  0  0  0  0
  9 10  2  0  0  0  0
 10 11  1  0  0  0  0
 10 16  1  0  0  0  0
 11 12  1  0  0  0  0
 12 13  1  0  0  0  0
 12 35  1  0  0  0  0
 12 36  1  0  0  0  0
 13 14  1  0  0  0  0
 13 37  1  0  0  0  0
 13 38  1  0  0  0  0
 14 15  2  0  0  0  0
 14 45  1  0  0  0  0
 16 17  1  0  0  0  0
 17 18  1  0  0  0  0
 17 39  1  0  0  0  0
 17 40  1  0  0  0  0
 18 19  2  0  0  0  0
 18 20  1  0  0  0  0
 20 21  1  0  0  0  0
 20 41  1  0  0  0  0
 21 26  2  0  0  0  0
 21 22  1  0  0  0  0
 22 23  2  0  0  0  0
 22 42  1  0  0  0  0
 23 24  1  0  0  0  0
 23 28  1  0  0  0  0
 24 25  2  0  0  0  0
 24 43  1  0  0  0  0
 25 26  1  0  0  0  0
 25 44  1  0  0  0  0
 26 27  1  0  0  0  0
 28 29  2  0  0  0  0
 28 46  1  0  0  0  0
M  END
$$$$
ZINC13122840
 OpenBabel01252620473D

 42 44  0  0  1  0  0  0  0  0999 V2000
   -0.0184    1.5028    0.0103 C   0  0  0  0  0  0  0  0  0  0  0  0
    0.0021   -0.0041    0.0020 C   0  0  0  0  0  0  0  0  0  0  0  0
   -1.1561   -0.6680    0.0041 C   0  0  0  0  0  0  0  0  0  0  0  0
   -1.0935   -2.1842   -0.0045 C   0  0  2  0  0  0  0  0  0  0  0  0
   -1.6203   -2.5501    0.8768 H   0  0  0  0  0  0  0  0  0  0  0  0
    0.2493   -2.7805   -0.0143 N   0  0  0  0  0  0  0  0  0  0  0  0
    1.3315   -1.9502   -0.0150 C   0  0  0  0  0  0  0  0  0  0  0  0
    1.1900   -0.6428   -0.0128 N   0  0  0  0  0  0  0  0  0  0  0  0
    2.4421   -2.7542   -0.0248 N   0  0  0  0  0  0  0  0  0  0  0  0
    2.0205   -4.0694   -0.0299 C   0  0  0  0  0  0  0  0  0  0  0  0
    0.7148   -4.0962   -0.0237 N   0  0  0  0  0  0  0  0  0  0  0  0
    2.8361   -5.1638   -0.0394 N   0  0  0  0  0  0  0  0  0  0  0  0
    2.3213   -6.3591   -0.0434 C   0  0  0  0  0  0  0  0  0  0  0  0
    0.9825   -6.5164   -0.0382 O   0  5  0  0  0  0  0  0  0  0  0  0
    3.2219   -7.5674   -0.0539 C   0  0  0  0  0  0  0  0  0  0  0  0
    4.6832   -7.1142   -0.0581 C   0  0  0  0  0  0  0  0  0  0  0  0
    5.5975   -8.3409   -0.0687 C   0  0  0  0  0  0  0  0  0  0  0  0
    7.0369   -7.8946   -0.0729 C   0  0  0  0  0  0  0  0  0  0  0  0
    7.3065   -6.7056   -0.0678 O   0  0  0  0  0  0  0  0  0  0  0  0
    7.9319   -8.7226   -0.0813 O   0  0  0  0  0  1  0  0  0  0  0  0
   -1.8292   -2.6766   -1.2241 C   0  0  0  0  0  0  0  0  0  0  0  0
   -1.2058   -2.6665   -2.4579 C   0  0  0  0  0  0  0  0  0  0  0  0
   -1.8800   -3.1180   -3.5768 C   0  0  0  0  0  0  0  0  0  0  0  0
   -3.1790   -3.5802   -3.4618 C   0  0  0  0  0  0  0  0  0  0  0  0
   -3.8023   -3.5901   -2.2267 C   0  0  0  0  0  0  0  0  0  0  0  0
   -3.1251   -3.1436   -1.1076 C   0  0  0  0  0  0  0  0  0  0  0  0
   -4.0266   -4.1469   -4.8668 Cl  0  0  0  0  0  0  0  0  0  0  0  0
    1.0042    1.8801    0.0026 H   0  0  0  0  0  0  0  0  0  0  0  0
   -0.5455    1.8639   -0.8728 H   0  0  0  0  0  0  0  0  0  0  0  0
   -0.5286    1.8543    0.9071 H   0  0  0  0  0  0  0  0  0  0  0  0
   -2.1015   -0.1460    0.0118 H   0  0  0  0  0  0  0  0  0  0  0  0
    3.3638   -2.4518   -0.0281 H   0  0  0  0  0  0  0  0  0  0  0  0
    3.0310   -8.1705    0.8338 H   0  0  0  0  0  0  0  0  0  0  0  0
    3.0230   -8.1610   -0.9461 H   0  0  0  0  0  0  0  0  0  0  0  0
    4.8741   -6.5111   -0.9457 H   0  0  0  0  0  0  0  0  0  0  0  0
    4.8821   -6.5206    0.8342 H   0  0  0  0  0  0  0  0  0  0  0  0
    5.4067   -8.9441    0.8189 H   0  0  0  0  0  0  0  0  0  0  0  0
    5.3987   -8.9346   -0.9610 H   0  0  0  0  0  0  0  0  0  0  0  0
   -0.1919   -2.3054   -2.5477 H   0  0  0  0  0  0  0  0  0  0  0  0
   -1.3931   -3.1097   -4.5408 H   0  0  0  0  0  0  0  0  0  0  0  0
   -4.8164   -3.9504   -2.1363 H   0  0  0  0  0  0  0  0  0  0  0  0
   -3.6099   -3.1557   -0.1426 H   0  0  0  0  0  0  0  0  0  0  0  0
  1  2  1  0  0  0  0
  1 28  1  0  0  0  0
  1 29  1  0  0  0  0
  1 30  1  0  0  0  0
  2  8  1  0  0  0  0
  2  3  2  0  0  0  0
  3  4  1  0  0  0  0
  3 31  1  0  0  0  0
  4  5  1  1  0  0  0
  4  6  1  0  0  0  0
  4 21  1  0  0  0  0
  6 11  1  0  0  0  0
  6  7  1  0  0  0  0
  7  8  2  0  0  0  0
  7  9  1  0  0  0  0
  9 10  1  0  0  0  0
  9 32  1  0  0  0  0
 10 11  2  0  0  0  0
 10 12  1  0  0  0  0
 12 13  2  0  0  0  0
 13 14  1  0  0  0  0
 13 15  1  0  0  0  0
 15 16  1  0  0  0  0
 15 33  1  0  0  0  0
 15 34  1  0  0  0  0
 16 17  1  0  0  0  0
 16 35  1  0  0  0  0
 16 36  1  0  0  0  0
 17 18  1  0  0  0  0
 17 37  1  0  0  0  0
 17 38  1  0  0  0  0
 18 19  2  0  0  0  0
 18 20  1  0  0  0  0
 21 26  2  0  0  0  0
 21 22  1  0  0  0  0
 22 23  2  0  0  0  0
 22 39  1  0  0  0  0
 23 24  1  0  0  0  0
 23 40  1  0  0  0  0
 24 25  2  0  0  0  0
 24 27  1  0  0  0  0
 25 26  1  0  0  0  0
 25 41  1  0  0  0  0
 26 42  1  0  0  0  0
M  CHG  1  14  -1
M  END
$$$$
ZINC16900472
 OpenBabel01252620473D

 36 37  0  0  1  0  0  0  0  0999 V2000
   -0.0162    1.3913    0.0115 C   0  0  0  0  0  0  0  0  0  0  0  0
    0.4251    0.7220    1.1524 C   0  0  0  0  0  0  0  0  0  0  0  0
    1.6438    0.0383    1.1315 C   0  0  0  0  0  0  0  0  0  0  0  0
    2.4140    0.0252   -0.0213 C   0  0  0  0  0  0  0  0  0  0  0  0
    1.9789    0.6894   -1.1580 C   0  0  0  0  0  0  0  0  0  0  0  0
    0.7612    1.3752   -1.1459 C   0  0  0  0  0  0  0  0  0  0  0  0
    0.2989    2.0814   -2.3564 C   0  0  0  0  0  0  0  0  0  0  0  0
   -0.7667    2.6812   -2.3449 O   0  0  0  0  0  0  0  0  0  0  0  0
    0.9814    2.0667   -3.3710 O   0  0  0  0  0  1  0  0  0  0  0  0
    3.6369   -0.6615   -0.0376 N   0  0  0  0  0  0  0  0  0  0  0  0
    4.8170   -0.0373   -0.1385 C   0  0  0  0  0  0  0  0  0  0  0  0
    4.9719    1.1619   -0.2252 O   0  0  0  0  0  0  0  0  0  0  0  0
    5.9268   -1.0658   -0.1264 C   0  0  0  0  0  0  0  0  0  0  0  0
    5.1755   -2.4068    0.0002 C   0  0  1  0  0  0  0  0  0  0  0  0
    5.4584   -2.9197    0.9194 H   0  0  0  0  0  0  0  0  0  0  0  0
    3.7205   -1.9946    0.0521 C   0  0  0  0  0  0  0  0  0  0  0  0
    2.7794   -2.7518    0.1557 O   0  0  0  0  0  0  0  0  0  0  0  0
    5.4999   -3.4589   -1.4415 S   0  0  0  0  0  0  0  0  0  0  0  0
    4.6690   -5.0208   -1.0407 C   0  0  0  0  0  0  0  0  0  0  0  0
    4.8660   -6.0126   -2.1890 C   0  0  0  0  0  0  0  0  0  0  0  0
    4.1932   -7.2774   -1.8645 N   0  3  0  0  0  0  0  0  0  0  0  0
   -0.3934    0.7361    2.3802 C   0  0  0  0  0  0  0  0  0  0  0  0
   -1.4594    1.3350    2.3976 O   0  0  0  0  0  0  0  0  0  0  0  0
   -0.0055    0.1488    3.3803 O   0  0  0  0  0  1  0  0  0  0  0  0
   -0.9596    1.9169    0.0229 H   0  0  0  0  0  0  0  0  0  0  0  0
    1.9863   -0.4803    2.0148 H   0  0  0  0  0  0  0  0  0  0  0  0
    2.5818    0.6768   -2.0539 H   0  0  0  0  0  0  0  0  0  0  0  0
    6.4932   -1.0298   -1.0570 H   0  0  0  0  0  0  0  0  0  0  0  0
    6.5834   -0.9116    0.7298 H   0  0  0  0  0  0  0  0  0  0  0  0
    5.0944   -5.4345   -0.1264 H   0  0  0  0  0  0  0  0  0  0  0  0
    3.6040   -4.8392   -0.8962 H   0  0  0  0  0  0  0  0  0  0  0  0
    4.4406   -5.5989   -3.1034 H   0  0  0  0  0  0  0  0  0  0  0  0
    5.9310   -6.1942   -2.3336 H   0  0  0  0  0  0  0  0  0  0  0  0
    3.2073   -7.1093   -1.7307 H   0  0  0  0  0  0  0  0  0  0  0  0
    4.3231   -7.9314   -2.6218 H   0  0  0  0  0  0  0  0  0  0  0  0
    4.5870   -7.6604   -1.0181 H   0  0  0  0  0  0  0  0  0  0  0  0
  1  6  2  0  0  0  0
  1  2  1  0  0  0  0
  1 25  1  0  0  0  0
  2  3  2  0  0  0  0
  2 22  1  0  0  0  0
  3  4  1  0  0  0  0
  3 26  1  0  0  0  0
  4  5  2  0  0  0  0
  4 10  1  0  0  0  0
  5  6  1  0  0  0  0
  5 27  1  0  0  0  0
  6  7  1  0  0  0  0
  7  8  2  0  0  0  0
  7  9  1  0  0  0  0
 10 16  1  0  0  0  0
 10 11  1  0  0  0  0
 11 12  2  0  0  0  0
 11 13  1  0  0  0  0
 13 14  1  0  0  0  0
 13 28  1  0  0  0  0
 13 29  1  0  0  0  0
 14 15  1  1  0  0  0
 14 16  1  0  0  0  0
 14 18  1  0  0  0  0
 16 17  2  0  0  0  0
 18 19  1  0  0  0  0
 19 20  1  0  0  0  0
 19 30  1  0  0  0  0
 19 31  1  0  0  0  0
 20 21  1  0  0  0  0
 20 32  1  0  0  0  0
 20 33  1  0  0  0  0
 21 34  1  0  0  0  0
 21 35  1  0  0  0  0
 21 36  1  0  0  0  0
 22 23  2  0  0  0  0
 22 24  1  0  0  0  0
M  CHG  1  21   1
M  END
$$$$
ZINC36049896
 OpenBabel01252620473D

 53 55  0  0  1  0  0  0  0  0999 V2000
   -0.9269    1.5048   -0.4641 C   0  0  0  0  0  0  0  0  0  0  0  0
   -0.7311   -0.0097   -0.3702 C   0  0  0  0  0  0  0  0  0  0  0  0
    0.1325   -0.4445   -1.4225 O   0  0  0  0  0  0  0  0  0  0  0  0
    0.4094   -1.7659   -1.4824 C   0  0  0  0  0  0  0  0  0  0  0  0
   -0.0714   -2.5272   -0.6610 O   0  0  0  0  0  0  0  0  0  0  0  0
    1.2487   -2.2604   -2.4881 C   0  0  0  0  0  0  0  0  0  0  0  0
    1.6628   -3.5786   -2.4881 C   0  0  0  0  0  0  0  0  0  0  0  0
    2.4560   -4.0321   -3.4450 N   0  0  0  0  0  0  0  0  0  0  0  0
    2.9113   -3.3107   -4.4486 C   0  0  0  0  0  0  0  0  0  0  0  0
    2.6194   -1.9879   -4.6312 N   0  0  0  0  0  0  0  0  0  0  0  0
    1.7270   -1.3710   -3.6140 C   0  0  1  0  0  0  0  0  0  0  0  0
    2.2588   -0.5280   -3.1728 H   0  0  0  0  0  0  0  0  0  0  0  0
    0.5135   -0.8275   -4.3233 C   0  0  0  0  0  0  0  0  0  0  0  0
   -0.2321   -1.6504   -5.1466 C   0  0  0  0  0  0  0  0  0  0  0  0
   -1.3452   -1.1519   -5.7973 C   0  0  0  0  0  0  0  0  0  0  0  0
   -1.7130    0.1694   -5.6243 C   0  0  0  0  0  0  0  0  0  0  0  0
   -0.9679    0.9920   -4.8003 C   0  0  0  0  0  0  0  0  0  0  0  0
    0.1428    0.4924   -4.1462 C   0  0  0  0  0  0  0  0  0  0  0  0
    3.1743   -1.3700   -5.7342 C   0  0  0  0  0  0  0  0  0  0  0  0
    3.9583   -2.1166   -6.5428 C   0  0  0  0  0  0  0  0  0  0  0  0
    3.9115   -3.7052   -5.7373 S   0  0  0  0  0  0  0  0  0  0  0  0
    2.9207    0.0496   -6.0191 C   0  0  0  0  0  0  0  0  0  0  0  0
    3.5732    0.6614   -7.0261 C   0  0  0  0  0  0  0  0  0  0  0  0
    4.3772   -0.0566   -7.8477 O   0  5  0  0  0  0  0  0  0  0  0  0
    3.4226    2.0238   -7.2219 N   0  0  0  0  0  0  0  0  0  0  0  0
    4.0419    2.6700   -8.3817 C   0  0  0  0  0  0  0  0  0  0  0  0
    3.8299    4.1828   -8.2963 C   0  0  0  0  0  0  0  0  0  0  0  0
    4.5263    4.6980   -7.1599 O   0  0  0  0  0  0  0  0  0  0  0  0
    4.3927    6.1103   -6.9874 C   0  0  0  0  0  0  0  0  0  0  0  0
    1.2083   -4.5059   -1.3905 C   0  0  0  0  0  0  0  0  0  0  0  0
    0.0384    2.0024   -0.3709 H   0  0  0  0  0  0  0  0  0  0  0  0
   -1.3730    1.7545   -1.4268 H   0  0  0  0  0  0  0  0  0  0  0  0
   -1.5856    1.8364    0.3385 H   0  0  0  0  0  0  0  0  0  0  0  0
   -0.2851   -0.2594    0.5925 H   0  0  0  0  0  0  0  0  0  0  0  0
   -1.6964   -0.5074   -0.4634 H   0  0  0  0  0  0  0  0  0  0  0  0
    0.0552   -2.6826   -5.2818 H   0  0  0  0  0  0  0  0  0  0  0  0
   -1.9273   -1.7945   -6.4411 H   0  0  0  0  0  0  0  0  0  0  0  0
   -2.5822    0.5591   -6.1332 H   0  0  0  0  0  0  0  0  0  0  0  0
   -1.2550    2.0244   -4.6654 H   0  0  0  0  0  0  0  0  0  0  0  0
    0.7227    1.1341   -3.4995 H   0  0  0  0  0  0  0  0  0  0  0  0
    4.4782   -1.8259   -7.4437 H   0  0  0  0  0  0  0  0  0  0  0  0
    2.2112    0.6021   -5.4209 H   0  0  0  0  0  0  0  0  0  0  0  0
    2.9071    2.5504   -6.5912 H   0  0  0  0  0  0  0  0  0  0  0  0
    5.1100    2.4528   -8.3913 H   0  0  0  0  0  0  0  0  0  0  0  0
    3.5857    2.2902   -9.2959 H   0  0  0  0  0  0  0  0  0  0  0  0
    4.2120    4.6549   -9.2014 H   0  0  0  0  0  0  0  0  0  0  0  0
    2.7654    4.3955   -8.1972 H   0  0  0  0  0  0  0  0  0  0  0  0
    3.3400    6.3629   -6.8612 H   0  0  0  0  0  0  0  0  0  0  0  0
    4.9498    6.4228   -6.1041 H   0  0  0  0  0  0  0  0  0  0  0  0
    4.7865    6.6224   -7.8653 H   0  0  0  0  0  0  0  0  0  0  0  0
    0.2264   -4.9089   -1.6387 H   0  0  0  0  0  0  0  0  0  0  0  0
    1.9214   -5.3238   -1.2875 H   0  0  0  0  0  0  0  0  0  0  0  0
    1.1484   -3.9556   -0.4516 H   0  0  0  0  0  0  0  0  0  0  0  0
  1  2  1  0  0  0  0
  1 31  1  0  0  0  0
  1 32  1  0  0  0  0
  1 33  1  0  0  0  0
  2  3  1  0  0  0  0
  2 34  1  0  0  0  0
  2 35  1  0  0  0  0
  3  4  1  0  0  0  0
  4  5  2  0  0  0  0
  4  6  1  0  0  0  0
  6 11  1  0  0  0  0
  6  7  2  0  0  0  0
  7  8  1  0  0  0  0
  7 30  1  0  0  0  0
  8  9  2  0  0  0  0
  9 21  1  0  0  0  0
  9 10  1  0  0  0  0
 10 11  1  0  0  0  0
 10 19  1  0  0  0  0
 11 12  1  1  0  0  0
 11 13  1  0  0  0  0
 13 18  2  0  0  0  0
 13 14  1  0  0  0  0
 14 15  2  0  0  0  0
 14 36  1  0  0  0  0
 15 16  1  0  0  0  0
 15 37  1  0  0  0  0
 16 17  2  0  0  0  0
 16 38  1  0  0  0  0
 17 18  1  0  0  0  0
 17 39  1  0  0  0  0
 18 40  1  0  0  0  0
 19 20  2  0  0  0  0
 19 22  1  0  0  0  0
 20 21  1  0  0  0  0
 20 41  1  0  0  0  0
 22 23  2  0  0  0  0
 22 42  1  0  0  0  0
 23 24  1  0  0  0  0
 23 25  1  0  0  0  0
 25 26  1  0  0  0  0
 25 43  1  0  0  0  0
 26 27  1  0  0  0  0
 26 44  1  0  0  0  0
 26 45  1  0  0  0  0
 27 28  1  0  0  0  0
 27 46  1  0  0  0  0
 27 47  1  0  0  0  0
 28 29  1  0  0  0  0
 29 48  1  0  0  0  0
 29 49  1  0  0  0  0
 29 50  1  0  0  0  0
 30 51  1  0  0  0  0
 30 52  1  0  0  0  0
 30 53  1  0  0  0  0
M  CHG  1  24  -1
M  END
$$$$
ZINC13279345
 OpenBabel01252620473D

 49 51  0  0  1  0  0  0  0  0999 V2000
    0.1057    1.5820   -0.1795 C   0  0  0  0  0  0  0  0  0  0  0  0
   -0.1778    0.1484   -0.0771 N   0  0  0  0  0  0  0  0  0  0  0  0
   -0.4216   -0.5512    1.0739 C   0  0  0  0  0  0  0  0  0  0  0  0
   -0.6317   -1.8319    0.7144 C   0  0  0  0  0  0  0  0  0  0  0  0
   -0.5192   -1.9121   -0.6197 N   0  0  0  0  0  0  0  0  0  0  0  0
   -0.2532   -0.7287   -1.1011 C   0  0  0  0  0  0  0  0  0  0  0  0
   -0.0587   -0.3966   -2.5582 C   0  0  1  0  0  0  0  0  0  0  0  0
   -0.1119    0.6835   -2.6949 H   0  0  0  0  0  0  0  0  0  0  0  0
    1.2897   -0.8944   -3.0112 C   0  0  0  0  0  0  0  0  0  0  0  0
    1.4548   -1.3658   -4.3002 C   0  0  0  0  0  0  0  0  0  0  0  0
    2.6925   -1.8172   -4.7180 C   0  0  0  0  0  0  0  0  0  0  0  0
    3.7637   -1.8078   -3.8424 C   0  0  0  0  0  0  0  0  0  0  0  0
    3.5964   -1.3412   -2.5507 C   0  0  0  0  0  0  0  0  0  0  0  0
    2.3596   -0.8847   -2.1358 C   0  0  0  0  0  0  0  0  0  0  0  0
    5.3167   -2.3818   -4.3641 Cl  0  0  0  0  0  0  0  0  0  0  0  0
   -1.1087   -1.0414   -3.3504 N   0  0  0  0  0  0  0  0  0  0  0  0
   -1.1787   -2.5030   -3.4225 C   0  0  0  0  0  0  0  0  0  0  0  0
   -2.2166   -0.1183   -4.1645 S   0  0  0  0  0  0  0  0  0  0  0  0
   -3.3674   -0.9317   -4.3469 O   0  0  0  0  0  0  0  0  0  0  0  0
   -2.2680    1.1359   -3.4985 O   0  0  0  0  0  0  0  0  0  0  0  0
   -1.5586    0.1905   -5.7696 C   0  0  0  0  0  0  0  0  0  0  0  0
   -2.1906   -0.3197   -6.8815 C   0  0  0  0  0  0  0  0  0  0  0  0
   -1.6680   -0.0738   -8.1544 C   0  0  0  0  0  0  0  0  0  0  0  0
   -0.5050    0.6898   -8.2927 C   0  0  0  0  0  0  0  0  0  0  0  0
    0.1205    1.1962   -7.1759 C   0  0  0  0  0  0  0  0  0  0  0  0
   -0.4056    0.9536   -5.9120 C   0  0  0  0  0  0  0  0  0  0  0  0
    0.2109    1.4592   -4.8140 O   0  0  0  0  0  0  0  0  0  0  0  0
    1.3913    2.2345   -5.0321 C   0  0  0  0  0  0  0  0  0  0  0  0
   -2.3417   -0.6178   -9.3481 C   0  0  0  0  0  0  0  0  0  0  0  0
   -3.3525   -1.2809   -9.2259 O   0  0  0  0  0  0  0  0  0  0  0  0
    1.1811    1.7457   -0.1090 H   0  0  0  0  0  0  0  0  0  0  0  0
   -0.2569    1.9566   -1.1367 H   0  0  0  0  0  0  0  0  0  0  0  0
   -0.3961    2.1104    0.6311 H   0  0  0  0  0  0  0  0  0  0  0  0
   -0.4412   -0.1528    2.0776 H   0  0  0  0  0  0  0  0  0  0  0  0
   -0.8521   -2.6508    1.3831 H   0  0  0  0  0  0  0  0  0  0  0  0
    0.6175   -1.3772   -4.9823 H   0  0  0  0  0  0  0  0  0  0  0  0
    2.8224   -2.1814   -5.7265 H   0  0  0  0  0  0  0  0  0  0  0  0
    4.4321   -1.3339   -1.8667 H   0  0  0  0  0  0  0  0  0  0  0  0
    2.2289   -0.5208   -1.1274 H   0  0  0  0  0  0  0  0  0  0  0  0
   -1.8843   -2.8702   -2.6773 H   0  0  0  0  0  0  0  0  0  0  0  0
   -1.5115   -2.8022   -4.4164 H   0  0  0  0  0  0  0  0  0  0  0  0
   -0.1924   -2.9240   -3.2275 H   0  0  0  0  0  0  0  0  0  0  0  0
   -3.0889   -0.9088   -6.7704 H   0  0  0  0  0  0  0  0  0  0  0  0
   -0.0978    0.8819   -9.2744 H   0  0  0  0  0  0  0  0  0  0  0  0
    1.0189    1.7861   -7.2818 H   0  0  0  0  0  0  0  0  0  0  0  0
    1.7830    2.5773   -4.0744 H   0  0  0  0  0  0  0  0  0  0  0  0
    2.1410    1.6218   -5.5328 H   0  0  0  0  0  0  0  0  0  0  0  0
    1.1505    3.0956   -5.6554 H   0  0  0  0  0  0  0  0  0  0  0  0
   -1.8363   -0.3796  -10.5742 O   0  0  0  0  0  1  0  0  0  0  0  0
  1  2  1  0  0  0  0
  1 31  1  0  0  0  0
  1 32  1  0  0  0  0
  1 33  1  0  0  0  0
  2  6  1  0  0  0  0
  2  3  1  0  0  0  0
  3  4  2  0  0  0  0
  3 34  1  0  0  0  0
  4  5  1  0  0  0  0
  4 35  1  0  0  0  0
  5  6  2  0  0  0  0
  6  7  1  0  0  0  0
  7  8  1  6  0  0  0
  7  9  1  0  0  0  0
  7 16  1  0  0  0  0
  9 14  2  0  0  0  0
  9 10  1  0  0  0  0
 10 11  2  0  0  0  0
 10 36  1  0  0  0  0
 11 12  1  0  0  0  0
 11 37  1  0  0  0  0
 12 13  2  0  0  0  0
 12 15  1  0  0  0  0
 13 14  1  0  0  0  0
 13 38  1  0  0  0  0
 14 39  1  0  0  0  0
 16 17  1  0  0  0  0
 16 18  1  0  0  0  0
 17 40  1  0  0  0  0
 17 41  1  0  0  0  0
 17 42  1  0  0  0  0
 18 19  2  0  0  0  0
 18 20  2  0  0  0  0
 18 21  1  0  0  0  0
 21 26  2  0  0  0  0
 21 22  1  0  0  0  0
 22 23  2  0  0  0  0
 22 43  1  0  0  0  0
 23 24  1  0  0  0  0
 23 29  1  0  0  0  0
 24 25  2  0  0  0  0
 24 44  1  0  0  0  0
 25 26  1  0  0  0  0
 25 45  1  0  0  0  0
 26 27  1  0  0  0  0
 27 28  1  0  0  0  0
 28 46  1  0  0  0  0
 28 47  1  0  0  0  0
 28 48  1  0  0  0  0
 29 30  2  0  0  0  0
 29 49  1  0  0  0  0
M  END
$$$$
ZINC13274215
 OpenBabel01252620473D

 37 38  0  0  0  0  0  0  0  0999 V2000
    7.2524    7.4796    2.1767 C   0  0  0  0  0  0  0  0  0  0  0  0
    6.1571    6.4243    2.0112 C   0  0  0  0  0  0  0  0  0  0  0  0
    5.8806    6.2053    0.5224 C   0  0  0  0  0  0  0  0  0  0  0  0
    4.8017    5.1658    0.3595 C   0  0  0  0  0  0  0  0  0  0  0  0
    4.9791    3.8791    0.2512 N   0  0  0  0  0  0  0  0  0  0  0  0
    3.8450    3.2862    0.1312 N   0  0  0  0  0  0  0  0  0  0  0  0
    2.8756    4.1710    0.1483 C   0  0  0  0  0  0  0  0  0  0  0  0
    3.4563    5.3977    0.2978 N   0  0  0  0  0  0  0  0  0  0  0  0
    2.7778    6.6938    0.3755 C   0  0  0  0  0  0  0  0  0  0  0  0
    2.4579    7.0079    1.8143 C   0  0  0  0  0  0  0  0  0  0  0  0
    2.7652    6.2290    2.6854 O   0  0  0  0  0  0  0  0  0  0  0  0
    1.1508    3.8380    0.0117 S   0  0  0  0  0  0  0  0  0  0  0  0
    1.1882    2.0818   -0.1261 C   0  0  0  0  0  0  0  0  0  0  0  0
    1.0105    1.4782   -1.3691 C   0  0  0  0  0  0  0  0  0  0  0  0
    1.0390    0.1171   -1.4794 C   0  0  0  0  0  0  0  0  0  0  0  0
    1.2469   -0.6711   -0.3423 C   0  0  0  0  0  0  0  0  0  0  0  0
    1.4250   -0.0619    0.9042 C   0  0  0  0  0  0  0  0  0  0  0  0
    1.3954    1.3000    1.0077 C   0  0  0  0  0  0  0  0  0  0  0  0
    1.5776    1.9453    2.3274 N   0  0  0  0  0  4  0  0  0  0  0  0
    1.7538    1.2621    3.3203 O   0  0  0  0  0  0  0  0  0  0  0  0
    1.5513    3.1595    2.4205 O   0  5  0  0  0  0  0  0  0  0  0  0
    1.2778   -2.1398   -0.4575 C   0  0  0  0  0  0  0  0  0  0  0  0
    1.4581   -2.8231    0.5311 O   0  0  0  0  0  0  0  0  0  0  0  0
    7.4493    7.6357    3.2373 H   0  0  0  0  0  0  0  0  0  0  0  0
    8.1630    7.1385    1.6844 H   0  0  0  0  0  0  0  0  0  0  0  0
    6.9250    8.4167    1.7263 H   0  0  0  0  0  0  0  0  0  0  0  0
    5.2464    6.7654    2.5036 H   0  0  0  0  0  0  0  0  0  0  0  0
    6.4844    5.4872    2.4617 H   0  0  0  0  0  0  0  0  0  0  0  0
    6.7912    5.8641    0.0301 H   0  0  0  0  0  0  0  0  0  0  0  0
    5.5532    7.1423    0.0720 H   0  0  0  0  0  0  0  0  0  0  0  0
    3.4279    7.4692   -0.0298 H   0  0  0  0  0  0  0  0  0  0  0  0
    1.8541    6.6556   -0.2020 H   0  0  0  0  0  0  0  0  0  0  0  0
    0.8500    2.0873   -2.2465 H   0  0  0  0  0  0  0  0  0  0  0  0
    0.9008   -0.3501   -2.4432 H   0  0  0  0  0  0  0  0  0  0  0  0
    1.5853   -0.6676    1.7839 H   0  0  0  0  0  0  0  0  0  0  0  0
    1.8317    8.1529    2.1281 O   0  0  0  0  0  1  0  0  0  0  0  0
    1.1061   -2.7252   -1.6592 O   0  0  0  0  0  1  0  0  0  0  0  0
  1  2  1  0  0  0  0
  1 24  1  0  0  0  0
  1 25  1  0  0  0  0
  1 26  1  0  0  0  0
  2  3  1  0  0  0  0
  2 27  1  0  0  0  0
  2 28  1  0  0  0  0
  3  4  1  0  0  0  0
  3 29  1  0  0  0  0
  3 30  1  0  0  0  0
  4  8  1  0  0  0  0
  4  5  2  0  0  0  0
  5  6  1  0  0  0  0
  6  7  2  0  0  0  0
  7  8  1  0  0  0  0
  7 12  1  0  0  0  0
  8  9  1  0  0  0  0
  9 10  1  0  0  0  0
  9 31  1  0  0  0  0
  9 32  1  0  0  0  0
 10 11  2  0  0  0  0
 10 36  1  0  0  0  0
 12 13  1  0  0  0  0
 13 18  2  0  0  0  0
 13 14  1  0  0  0  0
 14 15  2  0  0  0  0
 14 33  1  0  0  0  0
 15 16  1  0  0  0  0
 15 34  1  0  0  0  0
 16 17  2  0  0  0  0
 16 22  1  0  0  0  0
 17 18  1  0  0  0  0
 17 35  1  0  0  0  0
 18 19  1  0  0  0  0
 19 20  2  0  0  0  0
 19 21  1  0  0  0  0
 22 23  2  0  0  0  0
 22 37  1  0  0  0  0
M  CHG  1  21  -1
M  END
$$$$
ZINC20827423
 OpenBabel01252620473D

 17 18  0  0  0  0  0  0  0  0999 V2000
   -7.2462    2.7951    0.0501 C   0  0  0  0  0  0  0  0  0  0  0  0
   -5.7436    2.6805    0.0434 C   0  0  0  0  0  0  0  0  0  0  0  0
   -4.8940    3.7057    0.0449 N   0  0  0  0  0  0  0  0  0  0  0  0
   -3.6544    3.2603    0.0366 C   0  0  0  0  0  0  0  0  0  0  0  0
   -2.4372    3.8966    0.0344 N   0  0  0  0  0  0  0  0  0  0  0  0
   -1.3284    3.2476    0.0260 N   0  0  0  0  0  0  0  0  0  0  0  0
   -1.2993    1.9299    0.0187 C   0  0  0  0  0  0  0  0  0  0  0  0
   -2.5703    1.1875    0.0145 C   0  0  0  0  0  0  0  0  0  0  0  0
   -2.5870   -0.0291    0.0031 O   0  5  0  0  0  0  0  0  0  0  0  0
   -3.7143    1.8984    0.0295 N   0  0  0  0  0  0  0  0  0  0  0  0
   -5.0708    1.5575    0.0340 N   0  0  0  0  0  0  0  0  0  0  0  0
   -0.0144    1.2111    0.0087 C   0  0  0  0  0  0  0  0  0  0  0  0
    0.0021   -0.0041    0.0020 O   0  0  0  0  0  0  0  0  0  0  0  0
    1.1436    1.9009    0.0013 O   0  0  0  0  0  1  0  0  0  0  0  0
   -7.5329    3.8571    0.0576 H   0  0  0  0  0  0  0  0  0  0  0  0
   -7.6476    2.3006    0.9469 H   0  0  0  0  0  0  0  0  0  0  0  0
   -7.6548    2.3113   -0.8493 H   0  0  0  0  0  0  0  0  0  0  0  0
  1  2  1  0  0  0  0
  1 15  1  0  0  0  0
  1 16  1  0  0  0  0
  1 17  1  0  0  0  0
  2 11  2  0  0  0  0
  2  3  1  0  0  0  0
  3  4  2  0  0  0  0
  4 10  1  0  0  0  0
  4  5  1  0  0  0  0
  5  6  2  0  0  0  0
  6  7  1  0  0  0  0
  7  8  2  0  0  0  0
  7 12  1  0  0  0  0
  8  9  1  0  0  0  0
  8 10  1  0  0  0  0
 10 11  1  0  0  0  0
 12 13  2  0  0  0  0
 12 14  1  0  0  0  0
M  CHG  1   9  -1
M  END
$$$$
ZINC40075873
 OpenBabel01252620473D

 45 47  0  0  1  0  0  0  0  0999 V2000
   -0.3909    1.4981    0.1074 C   0  0  0  0  0  0  0  0  0  0  0  0
   -0.4891   -0.0220   -0.0354 C   0  0  0  0  0  0  0  0  0  0  0  0
    0.4216   -0.4873   -1.1733 C   0  0  0  0  0  0  0  0  0  0  0  0
    0.3234   -2.0075   -1.3161 C   0  0  0  0  0  0  0  0  0  0  0  0
    1.1954   -2.4530   -2.4057 N   0  0  0  0  0  0  0  0  0  0  0  0
    0.8171   -2.5801   -3.8181 C   0  0  2  0  0  0  0  0  0  0  0  0
    0.0072   -3.3016   -3.9258 H   0  0  0  0  0  0  0  0  0  0  0  0
    2.0498   -3.0710   -4.5411 C   0  0  0  0  0  0  0  0  0  0  0  0
    3.0219   -3.2028   -3.6098 C   0  0  0  0  0  0  0  0  0  0  0  0
    2.4868   -2.8126   -2.2900 C   0  0  0  0  0  0  0  0  0  0  0  0
    3.1187   -2.8179   -1.2521 O   0  0  0  0  0  0  0  0  0  0  0  0
    4.2866   -3.6217   -3.8504 O   0  5  0  0  0  0  0  0  0  0  0  0
    2.1691   -3.3511   -5.9768 C   0  0  0  0  0  0  0  0  0  0  0  0
    2.9308   -2.6940   -6.6644 O   0  0  0  0  0  0  0  0  0  0  0  0
    1.3722   -4.4213   -6.5834 C   0  0  0  0  0  0  0  0  0  0  0  0
    1.4482   -4.8483   -7.8917 C   0  0  0  0  0  0  0  0  0  0  0  0
    0.5124   -5.8836   -8.0289 C   0  0  0  0  0  0  0  0  0  0  0  0
   -0.0850   -6.0444   -6.8262 C   0  0  0  0  0  0  0  0  0  0  0  0
    0.4376   -5.1678   -5.9591 O   0  0  0  0  0  0  0  0  0  0  0  0
   -1.1609   -7.0515   -6.5111 C   0  0  0  0  0  0  0  0  0  0  0  0
    0.3935   -1.2408   -4.3638 C   0  0  0  0  0  0  0  0  0  0  0  0
   -0.6972   -1.0070   -5.1156 C   0  0  0  0  0  0  0  0  0  0  0  0
   -0.7072    0.3772   -5.4033 C   0  0  0  0  0  0  0  0  0  0  0  0
    0.3779    0.9065   -4.8102 C   0  0  0  0  0  0  0  0  0  0  0  0
    1.0377   -0.0772   -4.1772 O   0  0  0  0  0  0  0  0  0  0  0  0
    0.7817    2.3580   -4.8453 C   0  0  0  0  0  0  0  0  0  0  0  0
    0.6393    1.7763    0.3296 H   0  0  0  0  0  0  0  0  0  0  0  0
   -0.7022    1.9714   -0.8238 H   0  0  0  0  0  0  0  0  0  0  0  0
   -1.0397    1.8296    0.9181 H   0  0  0  0  0  0  0  0  0  0  0  0
   -0.1778   -0.4953    0.8958 H   0  0  0  0  0  0  0  0  0  0  0  0
   -1.5193   -0.3003   -0.2576 H   0  0  0  0  0  0  0  0  0  0  0  0
    0.1103   -0.0140   -2.1046 H   0  0  0  0  0  0  0  0  0  0  0  0
    1.4518   -0.2091   -0.9511 H   0  0  0  0  0  0  0  0  0  0  0  0
    0.6347   -2.4808   -0.3849 H   0  0  0  0  0  0  0  0  0  0  0  0
   -0.7068   -2.2857   -1.5384 H   0  0  0  0  0  0  0  0  0  0  0  0
    2.1005   -4.4612   -8.6605 H   0  0  0  0  0  0  0  0  0  0  0  0
    0.3066   -6.4467   -8.9272 H   0  0  0  0  0  0  0  0  0  0  0  0
   -0.7016   -7.9792   -6.1699 H   0  0  0  0  0  0  0  0  0  0  0  0
   -1.8092   -6.6576   -5.7284 H   0  0  0  0  0  0  0  0  0  0  0  0
   -1.7501   -7.2460   -7.4073 H   0  0  0  0  0  0  0  0  0  0  0  0
   -1.4252   -1.7367   -5.4380 H   0  0  0  0  0  0  0  0  0  0  0  0
   -1.4445    0.9078   -5.9876 H   0  0  0  0  0  0  0  0  0  0  0  0
    0.3294    2.8814   -4.0030 H   0  0  0  0  0  0  0  0  0  0  0  0
    1.8670    2.4348   -4.7805 H   0  0  0  0  0  0  0  0  0  0  0  0
    0.4407    2.8075   -5.7779 H   0  0  0  0  0  0  0  0  0  0  0  0
  1  2  1  0  0  0  0
  1 27  1  0  0  0  0
  1 28  1  0  0  0  0
  1 29  1  0  0  0  0
  2  3  1  0  0  0  0
  2 30  1  0  0  0  0
  2 31  1  0  0  0  0
  3  4  1  0  0  0  0
  3 32  1  0  0  0  0
  3 33  1  0  0  0  0
  4  5  1  0  0  0  0
  4 34  1  0  0  0  0
  4 35  1  0  0  0  0
  5 10  1  0  0  0  0
  5  6  1  0  0  0  0
  6  7  1  6  0  0  0
  6  8  1  0  0  0  0
  6 21  1  0  0  0  0
  8  9  2  0  0  0  0
  8 13  1  0  0  0  0
  9 10  1  0  0  0  0
  9 12  1  0  0  0  0
 10 11  2  0  0  0  0
 13 14  2  0  0  0  0
 13 15  1  0  0  0  0
 15 19  1  0  0  0  0
 15 16  2  0  0  0  0
 16 17  1  0  0  0  0
 16 36  1  0  0  0  0
 17 18  2  0  0  0  0
 17 37  1  0  0  0  0
 18 19  1  0  0  0  0
 18 20  1  0  0  0  0
 20 38  1  0  0  0  0
 20 39  1  0  0  0  0
 20 40  1  0  0  0  0
 21 25  1  0  0  0  0
 21 22  2  0  0  0  0
 22 23  1  0  0  0  0
 22 41  1  0  0  0  0
 23 24  2  0  0  0  0
 23 42  1  0  0  0  0
 24 25  1  0  0  0  0
 24 26  1  0  0  0  0
 26 43  1  0  0  0  0
 26 44  1  0  0  0  0
 26 45  1  0  0  0  0
M  CHG  1  12  -1
M  END
$$$$
ZINC63858375
 OpenBabel01252620473D

 55 57  0  0  0  0  0  0  0  0999 V2000
    4.4029   -2.8560    2.5323 C   0  0  0  0  0  0  0  0  0  0  0  0
    3.1283   -3.3591    1.9050 C   0  0  0  0  0  0  0  0  0  0  0  0
    3.1555   -3.9177    0.6392 C   0  0  0  0  0  0  0  0  0  0  0  0
    1.9900   -4.3822    0.0566 C   0  0  0  0  0  0  0  0  0  0  0  0
    0.7919   -4.2907    0.7351 C   0  0  0  0  0  0  0  0  0  0  0  0
    0.7578   -3.7287    2.0116 C   0  0  0  0  0  0  0  0  0  0  0  0
    1.9381   -3.2670    2.5961 C   0  0  0  0  0  0  0  0  0  0  0  0
   -0.5237   -3.6274    2.7450 C   0  0  0  0  0  0  0  0  0  0  0  0
   -1.5456   -4.0735    2.2514 O   0  0  0  0  0  0  0  0  0  0  0  0
   -0.5629   -3.0156    4.0136 C   0  0  0  0  0  0  0  0  0  0  0  0
   -0.0885   -3.6988    5.1317 C   0  0  0  0  0  0  0  0  0  0  0  0
    0.3040   -5.0050    5.0198 N   0  0  0  0  0  0  0  0  0  0  0  0
    0.7018   -5.7552    6.2136 C   0  0  0  0  0  0  0  0  0  0  0  0
    2.1785   -5.4903    6.5139 C   0  0  0  0  0  0  0  0  0  0  0  0
    2.5939   -6.2738    7.7607 C   0  0  0  0  0  0  0  0  0  0  0  0
    2.3834   -7.7695    7.5168 C   0  0  0  0  0  0  0  0  0  0  0  0
    0.9067   -8.0344    7.2165 C   0  0  0  0  0  0  0  0  0  0  0  0
    0.4913   -7.2509    5.9697 C   0  0  0  0  0  0  0  0  0  0  0  0
    0.0060   -2.8809    6.6895 S   0  0  0  0  0  1  0  0  0  0  0  0
   -1.0698   -1.7431    4.1486 N   0  0  0  0  0  0  0  0  0  0  0  0
   -0.2971   -0.7048    3.8594 C   0  0  0  0  0  3  0  0  0  0  0  0
   -0.7772    0.5881    3.9842 C   0  0  0  0  0  0  0  0  0  0  0  0
   -2.0853    0.7866    4.4185 C   0  0  0  0  0  0  0  0  0  0  0  0
   -2.8617   -0.3243    4.7110 C   0  0  0  0  0  0  0  0  0  0  0  0
   -2.3210   -1.5852    4.5595 C   0  0  0  0  0  0  0  0  0  0  0  0
   -3.1610   -2.7973    4.8698 C   0  0  0  0  0  0  0  0  0  0  0  0
    0.0181    1.6494    3.6873 O   0  5  0  0  0  0  0  0  0  0  0  0
   -0.4770   -4.7964    0.0986 C   0  0  0  0  0  0  0  0  0  0  0  0
    4.8756   -3.6631    3.0921 H   0  0  0  0  0  0  0  0  0  0  0  0
    5.0802   -2.5101    1.7515 H   0  0  0  0  0  0  0  0  0  0  0  0
    4.1747   -2.0309    3.2071 H   0  0  0  0  0  0  0  0  0  0  0  0
    4.0905   -3.9909    0.1038 H   0  0  0  0  0  0  0  0  0  0  0  0
    2.0177   -4.8171   -0.9315 H   0  0  0  0  0  0  0  0  0  0  0  0
    1.9189   -2.8346    3.5856 H   0  0  0  0  0  0  0  0  0  0  0  0
    0.3189   -5.4341    4.1500 H   0  0  0  0  0  0  0  0  0  0  0  0
    0.0957   -5.4366    7.0616 H   0  0  0  0  0  0  0  0  0  0  0  0
    2.7846   -5.8089    5.6658 H   0  0  0  0  0  0  0  0  0  0  0  0
    2.3284   -4.4247    6.6877 H   0  0  0  0  0  0  0  0  0  0  0  0
    3.6459   -6.0850    7.9746 H   0  0  0  0  0  0  0  0  0  0  0  0
    1.9878   -5.9551    8.6087 H   0  0  0  0  0  0  0  0  0  0  0  0
    2.9895   -8.0881    6.6687 H   0  0  0  0  0  0  0  0  0  0  0  0
    2.6793   -8.3276    8.4050 H   0  0  0  0  0  0  0  0  0  0  0  0
    0.7568   -9.1000    7.0427 H   0  0  0  0  0  0  0  0  0  0  0  0
    0.3006   -7.7157    8.0645 H   0  0  0  0  0  0  0  0  0  0  0  0
   -0.5607   -7.4396    5.7557 H   0  0  0  0  0  0  0  0  0  0  0  0
    1.0974   -7.5696    5.1216 H   0  0  0  0  0  0  0  0  0  0  0  0
    0.7162   -0.8691    3.5237 H   0  0  0  0  0  0  0  0  0  0  0  0
   -2.4861    1.7838    4.5255 H   0  0  0  0  0  0  0  0  0  0  0  0
   -3.8801   -0.2044    5.0501 H   0  0  0  0  0  0  0  0  0  0  0  0
   -3.0400   -3.0641    5.9197 H   0  0  0  0  0  0  0  0  0  0  0  0
   -4.2090   -2.5739    4.6701 H   0  0  0  0  0  0  0  0  0  0  0  0
   -2.8414   -3.6306    4.2440 H   0  0  0  0  0  0  0  0  0  0  0  0
   -0.6891   -5.8025    0.4605 H   0  0  0  0  0  0  0  0  0  0  0  0
   -1.3030   -4.1348    0.3593 H   0  0  0  0  0  0  0  0  0  0  0  0
   -0.3566   -4.8178   -0.9845 H   0  0  0  0  0  0  0  0  0  0  0  0
  1  2  1  0  0  0  0
  1 29  1  0  0  0  0
  1 30  1  0  0  0  0
  1 31  1  0  0  0  0
  2  7  2  0  0  0  0
  2  3  1  0  0  0  0
  3  4  2  0  0  0  0
  3 32  1  0  0  0  0
  4  5  1  0  0  0  0
  4 33  1  0  0  0  0
  5  6  2  0  0  0  0
  5 28  1  0  0  0  0
  6  7  1  0  0  0  0
  6  8  1  0  0  0  0
  7 34  1  0  0  0  0
  8  9  2  0  0  0  0
  8 10  1  0  0  0  0
 10 11  2  0  0  0  0
 10 20  1  0  0  0  0
 11 12  1  0  0  0  0
 11 19  1  0  0  0  0
 12 13  1  0  0  0  0
 12 35  1  0  0  0  0
 13 18  1  0  0  0  0
 13 14  1  0  0  0  0
 13 36  1  0  0  0  0
 14 15  1  0  0  0  0
 14 37  1  0  0  0  0
 14 38  1  0  0  0  0
 15 16  1  0  0  0  0
 15 39  1  0  0  0  0
 15 40  1  0  0  0  0
 16 17  1  0  0  0  0
 16 41  1  0  0  0  0
 16 42  1  0  0  0  0
 17 18  1  0  0  0  0
 17 43  1  0  0  0  0
 17 44  1  0  0  0  0
 18 45  1  0  0  0  0
 18 46  1  0  0  0  0
 20 25  1  0  0  0  0
 20 21  1  0  0  0  0
 21 22  1  0  0  0  0
 21 47  1  0  0  0  0
 22 23  2  0  0  0  0
 22 27  1  0  0  0  0
 23 24  1  0  0  0  0
 23 48  1  0  0  0  0
 24 25  2  0  0  0  0
 24 49  1  0  0  0  0
 25 26  1  0  0  0  0
 26 50  1  0  0  0  0
 26 51  1  0  0  0  0
 26 52  1  0  0  0  0
 28 53  1  0  0  0  0
 28 54  1  0  0  0  0
 28 55  1  0  0  0  0
M  CHG  1  27  -1
M  END
$$$$
ZINC62963129
 OpenBabel01252620473D

 29 30  0  0  1  0  0  0  0  0999 V2000
    1.2157   -0.6764   -0.0038 C   0  0  0  0  0  0  0  0  0  0  0  0
    2.4000    0.0237    0.1175 C   0  0  0  0  0  0  0  0  0  0  0  0
    2.3783    1.3831    0.3754 C   0  0  0  0  0  0  0  0  0  0  0  0
    1.1707    2.0448    0.5124 C   0  0  0  0  0  0  0  0  0  0  0  0
   -0.0166    1.3498    0.3916 C   0  0  0  0  0  0  0  0  0  0  0  0
    0.0021   -0.0147    0.1328 C   0  0  0  0  0  0  0  0  0  0  0  0
   -1.1977   -0.7205    0.0101 N   0  0  0  0  0  0  0  0  0  0  0  0
   -1.1799   -2.1806   -0.1085 C   0  0  1  0  0  0  0  0  0  0  0  0
   -0.4050   -2.7585    1.0749 C   0  0  0  0  0  0  0  0  0  0  0  0
   -1.3677   -3.0458    2.2608 C   0  0  0  0  0  0  0  0  0  0  0  0
   -2.8190   -3.7028    1.3266 S   0  0  0  0  0  0  0  0  0  0  0  0
   -2.5906   -5.0687    1.0084 O   0  0  0  0  0  0  0  0  0  0  0  0
   -4.0147   -3.3276    1.9965 O   0  0  0  0  0  0  0  0  0  0  0  0
   -2.6329   -2.6866   -0.1975 C   0  0  0  0  0  0  0  0  0  0  0  0
   -0.4606   -2.5515   -1.3798 C   0  0  0  0  0  0  0  0  0  0  0  0
   -0.0246   -1.6784   -2.1105 O   0  0  0  0  0  0  0  0  0  0  0  0
   -0.3148   -3.7248   -1.6776 O   0  0  0  0  0  1  0  0  0  0  0  0
    3.8688    2.2599    0.5278 Cl  0  0  0  0  0  0  0  0  0  0  0  0
    1.2331   -1.7365   -0.2092 H   0  0  0  0  0  0  0  0  0  0  0  0
    3.3438   -0.4903    0.0113 H   0  0  0  0  0  0  0  0  0  0  0  0
    1.1567    3.1057    0.7144 H   0  0  0  0  0  0  0  0  0  0  0  0
   -0.9588    1.8667    0.4990 H   0  0  0  0  0  0  0  0  0  0  0  0
   -2.0424   -0.2436    0.0034 H   0  0  0  0  0  0  0  0  0  0  0  0
    0.0791   -3.6864    0.7704 H   0  0  0  0  0  0  0  0  0  0  0  0
    0.3546   -2.0440    1.3921 H   0  0  0  0  0  0  0  0  0  0  0  0
   -0.9554   -3.7973    2.9342 H   0  0  0  0  0  0  0  0  0  0  0  0
   -1.6213   -2.1315    2.7973 H   0  0  0  0  0  0  0  0  0  0  0  0
   -3.3325   -1.8508   -0.1904 H   0  0  0  0  0  0  0  0  0  0  0  0
   -2.7730   -3.2994   -1.0879 H   0  0  0  0  0  0  0  0  0  0  0  0
  1  6  2  0  0  0  0
  1  2  1  0  0  0  0
  1 19  1  0  0  0  0
  2  3  2  0  0  0  0
  2 20  1  0  0  0  0
  3  4  1  0  0  0  0
  3 18  1  0  0  0  0
  4  5  2  0  0  0  0
  4 21  1  0  0  0  0
  5  6  1  0  0  0  0
  5 22  1  0  0  0  0
  6  7  1  0  0  0  0
  7  8  1  0  0  0  0
  7 23  1  0  0  0  0
  8 14  1  0  0  0  0
  8  9  1  0  0  0  0
  8 15  1  6  0  0  0
  9 10  1  0  0  0  0
  9 24  1  0  0  0  0
  9 25  1  0  0  0  0
 10 11  1  0  0  0  0
 10 26  1  0  0  0  0
 10 27  1  0  0  0  0
 11 12  2  0  0  0  0
 11 13  2  0  0  0  0
 11 14  1  0  0  0  0
 14 28  1  0  0  0  0
 14 29  1  0  0  0  0
 15 16  2  0  0  0  0
 15 17  1  0  0  0  0
M  END
$$$$
ZINC21548969
 OpenBabel01252620473D

 39 40  0  0  0  0  0  0  0  0999 V2000
   -0.3859    0.8989    1.1914 C   0  0  0  0  0  0  0  0  0  0  0  0
   -1.2542    1.6219    2.1301 N   0  0  0  0  0  0  0  0  0  0  0  0
   -0.9480    1.2555    3.5194 C   0  0  0  0  0  0  0  0  0  0  0  0
   -1.1543    2.9978    1.9435 C   0  0  0  0  0  0  0  0  0  0  0  0
    0.0753    3.6319    2.0999 C   0  0  0  0  0  0  0  0  0  0  0  0
    0.1811    4.9813    1.9180 C   0  0  0  0  0  0  0  0  0  0  0  0
   -0.9496    5.7329    1.5727 C   0  0  0  0  0  0  0  0  0  0  0  0
   -2.1873    5.0958    1.4151 C   0  0  0  0  0  0  0  0  0  0  0  0
   -2.2832    3.7346    1.5953 C   0  0  0  0  0  0  0  0  0  0  0  0
   -3.5871    3.0551    1.4241 N   0  0  0  0  0  4  0  0  0  0  0  0
   -4.5745    3.6999    1.1195 O   0  0  0  0  0  0  0  0  0  0  0  0
   -3.6725    1.8512    1.5878 O   0  5  0  0  0  0  0  0  0  0  0  0
   -0.8378    7.1831    1.3763 C   0  0  0  0  0  0  0  0  0  0  0  0
   -1.8227    7.8587    0.7301 C   0  0  0  0  0  0  0  0  0  0  0  0
   -2.0070    9.3124    0.5537 C   0  0  0  0  0  0  0  0  0  0  0  0
   -1.2190   10.1173    1.0150 O   0  0  0  0  0  0  0  0  0  0  0  0
   -3.0691    9.6963   -0.1344 N   0  0  0  0  0  0  0  0  0  0  0  0
   -3.9439    8.8014   -0.6372 C   0  0  0  0  0  0  0  0  0  0  0  0
   -5.3687    9.0983   -1.5387 S   0  0  0  0  0  0  0  0  0  0  0  0
   -3.2567    7.2321   -0.1341 S   0  0  0  0  0  0  0  0  0  0  0  0
   -3.3043   11.1262   -0.3497 C   0  0  0  0  0  0  0  0  0  0  0  0
   -4.1485   11.6827    0.7986 C   0  0  0  0  0  0  0  0  0  0  0  0
   -4.3904   13.1536    0.5772 C   0  0  0  0  0  0  0  0  0  0  0  0
   -3.9344   13.7006   -0.3989 O   0  0  0  0  0  0  0  0  0  0  0  0
   -5.1125   13.8560    1.4643 O   0  0  0  0  0  1  0  0  0  0  0  0
   -0.6360    1.1914    0.1609 H   0  0  0  0  0  0  0  0  0  0  0  0
   -0.5369   -0.1840    1.3120 H   0  0  0  0  0  0  0  0  0  0  0  0
    0.6654    1.1479    1.3983 H   0  0  0  0  0  0  0  0  0  0  0  0
   -1.6112    1.8101    4.1995 H   0  0  0  0  0  0  0  0  0  0  0  0
    0.0994    1.5070    3.7426 H   0  0  0  0  0  0  0  0  0  0  0  0
   -1.1029    0.1751    3.6563 H   0  0  0  0  0  0  0  0  0  0  0  0
    0.9483    3.0547    2.3664 H   0  0  0  0  0  0  0  0  0  0  0  0
    1.1368    5.4693    2.0406 H   0  0  0  0  0  0  0  0  0  0  0  0
   -3.0624    5.6702    1.1490 H   0  0  0  0  0  0  0  0  0  0  0  0
    0.0438    7.7227    1.7526 H   0  0  0  0  0  0  0  0  0  0  0  0
   -2.3404   11.6549   -0.3859 H   0  0  0  0  0  0  0  0  0  0  0  0
   -3.8378   11.2709   -1.3007 H   0  0  0  0  0  0  0  0  0  0  0  0
   -5.1124   11.1539    0.8348 H   0  0  0  0  0  0  0  0  0  0  0  0
   -3.6150   11.5379    1.7496 H   0  0  0  0  0  0  0  0  0  0  0  0
  1  2  1  0  0  0  0
  1 26  1  0  0  0  0
  1 27  1  0  0  0  0
  1 28  1  0  0  0  0
  2  3  1  0  0  0  0
  2  4  1  0  0  0  0
  3 29  1  0  0  0  0
  3 30  1  0  0  0  0
  3 31  1  0  0  0  0
  4  9  2  0  0  0  0
  4  5  1  0  0  0  0
  5  6  2  0  0  0  0
  5 32  1  0  0  0  0
  6  7  1  0  0  0  0
  6 33  1  0  0  0  0
  7  8  2  0  0  0  0
  7 13  1  0  0  0  0
  8  9  1  0  0  0  0
  8 34  1  0  0  0  0
  9 10  1  0  0  0  0
 10 11  2  0  0  0  0
 10 12  1  0  0  0  0
 13 14  2  0  0  0  0
 13 35  1  0  0  0  0
 14 20  1  0  0  0  0
 14 15  1  0  0  0  0
 15 16  2  0  0  0  0
 15 17  1  0  0  0  0
 17 18  1  0  0  0  0
 17 21  1  0  0  0  0
 18 19  2  0  0  0  0
 18 20  1  0  0  0  0
 21 22  1  0  0  0  0
 21 36  1  0  0  0  0
 21 37  1  0  0  0  0
 22 23  1  0  0  0  0
 22 38  1  0  0  0  0
 22 39  1  0  0  0  0
 23 24  2  0  0  0  0
 23 25  1  0  0  0  0
M  CHG  1  12  -1
M  END
$$$$
ZINC36576623
 OpenBabel01252620473D

 39 40  0  0  1  0  0  0  0  0999 V2000
   -0.0184    1.5028    0.0103 C   0  0  0  0  0  0  0  0  0  0  0  0
    0.0021   -0.0041    0.0020 C   0  0  0  0  0  0  0  0  0  0  0  0
   -1.1904   -0.7289    0.0037 C   0  0  0  0  0  0  0  0  0  0  0  0
   -1.1631   -2.0855   -0.0033 C   0  0  0  0  0  0  0  0  0  0  0  0
    0.0097   -2.7645   -0.0120 N   0  0  0  0  0  0  0  0  0  0  0  0
    1.1888   -2.1140   -0.0145 C   0  0  0  0  0  0  0  0  0  0  0  0
    2.2336   -2.7420   -0.0228 O   0  0  0  0  0  0  0  0  0  0  0  0
    1.2112   -0.6948   -0.0132 C   0  0  0  0  0  0  0  0  0  0  0  0
    2.4553    0.0143   -0.0214 C   0  0  0  0  0  0  0  0  0  0  0  0
    3.4422    0.5768   -0.0278 N   0  0  0  0  0  0  0  0  0  0  0  0
   -0.0054   -4.2294   -0.0184 C   0  0  0  0  0  0  0  0  0  0  0  0
   -0.0177   -4.7330   -1.4631 C   0  0  0  0  0  0  0  0  0  0  0  0
   -0.0329   -6.1979   -1.4695 N   0  0  0  0  0  0  0  0  0  0  0  0
    1.0692   -6.9772   -1.4730 C   0  0  0  0  0  0  0  0  0  0  0  0
    2.2272   -6.6176   -1.4709 O   0  0  0  0  0  0  0  0  0  0  0  0
    0.5449   -8.3998   -1.4791 C   0  0  1  0  0  0  0  0  0  0  0  0
    0.8710   -8.9316   -0.5853 H   0  0  0  0  0  0  0  0  0  0  0  0
   -0.9176   -8.2364   -1.4783 N   0  0  0  0  0  0  0  0  0  0  0  0
   -1.1688   -6.9664   -1.4668 C   0  0  0  0  0  0  0  0  0  0  0  0
   -2.4180   -6.4525   -1.4579 O   0  0  0  0  0  0  0  0  0  0  0  0
    1.0054   -9.1364   -2.7386 C   0  0  0  0  0  0  0  0  0  0  0  0
    0.5760  -10.5789   -2.6621 C   0  0  0  0  0  0  0  0  0  0  0  0
   -0.0411  -10.9806   -1.6904 O   0  0  0  0  0  0  0  0  0  0  0  0
    0.8458  -11.3443   -3.5720 O   0  0  0  0  0  1  0  0  0  0  0  0
   -2.4609   -2.8514   -0.0008 C   0  0  0  0  0  0  0  0  0  0  0  0
    1.0042    1.8801    0.0026 H   0  0  0  0  0  0  0  0  0  0  0  0
   -0.5455    1.8639   -0.8728 H   0  0  0  0  0  0  0  0  0  0  0  0
   -0.5286    1.8543    0.9071 H   0  0  0  0  0  0  0  0  0  0  0  0
   -2.1371   -0.2091    0.0110 H   0  0  0  0  0  0  0  0  0  0  0  0
    0.8833   -4.6042    0.4894 H   0  0  0  0  0  0  0  0  0  0  0  0
   -0.8966   -4.5858    0.4982 H   0  0  0  0  0  0  0  0  0  0  0  0
   -0.9064   -4.3582   -1.9709 H   0  0  0  0  0  0  0  0  0  0  0  0
    0.8734   -4.3766   -1.9797 H   0  0  0  0  0  0  0  0  0  0  0  0
   -3.1179   -7.1197   -1.4571 H   0  0  0  0  0  0  0  0  0  0  0  0
    0.5579   -8.6701   -3.6163 H   0  0  0  0  0  0  0  0  0  0  0  0
    2.0916   -9.0841   -2.8134 H   0  0  0  0  0  0  0  0  0  0  0  0
   -3.2961   -2.1510    0.0068 H   0  0  0  0  0  0  0  0  0  0  0  0
   -2.5171   -3.4740   -0.8937 H   0  0  0  0  0  0  0  0  0  0  0  0
   -2.5084   -3.4830    0.8862 H   0  0  0  0  0  0  0  0  0  0  0  0
  1  2  1  0  0  0  0
  1 26  1  0  0  0  0
  1 27  1  0  0  0  0
  1 28  1  0  0  0  0
  2  8  2  0  0  0  0
  2  3  1  0  0  0  0
  3  4  2  0  0  0  0
  3 29  1  0  0  0  0
  4  5  1  0  0  0  0
  4 25  1  0  0  0  0
  5  6  1  0  0  0  0
  5 11  1  0  0  0  0
  6  7  2  0  0  0  0
  6  8  1  0  0  0  0
  8  9  1  0  0  0  0
  9 10  3  0  0  0  0
 11 12  1  0  0  0  0
 11 30  1  0  0  0  0
 11 31  1  0  0  0  0
 12 13  1  0  0  0  0
 12 32  1  0  0  0  0
 12 33  1  0  0  0  0
 13 19  1  0  0  0  0
 13 14  1  0  0  0  0
 14 15  2  0  0  0  0
 14 16  1  0  0  0  0
 16 17  1  1  0  0  0
 16 18  1  0  0  0  0
 16 21  1  0  0  0  0
 18 19  2  0  0  0  0
 19 20  1  0  0  0  0
 20 34  1  0  0  0  0
 21 22  1  0  0  0  0
 21 35  1  0  0  0  0
 21 36  1  0  0  0  0
 22 23  2  0  0  0  0
 22 24  1  0  0  0  0
 25 37  1  0  0  0  0
 25 38  1  0  0  0  0
 25 39  1  0  0  0  0
M  END
$$$$
ZINC41539300
 OpenBabel01252620473D

 49 51  0  0  1  0  0  0  0  0999 V2000
    2.9171    1.0849   -3.5090 C   0  0  0  0  0  0  0  0  0  0  0  0
    2.7132   -0.3338   -3.0436 C   0  0  0  0  0  0  0  0  0  0  0  0
    1.5546   -0.8430   -2.4147 C   0  0  0  0  0  0  0  0  0  0  0  0
    1.7859   -2.1806   -2.1561 C   0  0  0  0  0  0  0  0  0  0  0  0
    3.0187   -2.4685   -2.6038 N   0  0  0  0  0  0  0  0  0  0  0  0
    3.5730   -1.3082   -3.1557 N   0  0  0  0  0  0  0  0  0  0  0  0
    3.6712   -3.7782   -2.5318 C   0  0  0  0  0  0  0  0  0  0  0  0
    0.8308   -3.1394   -1.4933 C   0  0  0  0  0  0  0  0  0  0  0  0
    0.3285   -0.0884   -2.0945 C   0  0  0  0  0  0  0  0  0  0  0  0
   -0.5619   -0.6171   -1.4551 O   0  0  0  0  0  0  0  0  0  0  0  0
    0.1823    1.2995   -2.5468 C   0  0  0  0  0  0  0  0  0  0  0  0
   -0.1393    1.7118   -3.7943 C   0  0  0  0  0  0  0  0  0  0  0  0
   -0.1825    3.1889   -3.8219 C   0  0  0  0  0  0  0  0  0  0  0  0
   -0.4435    3.8607   -4.8000 O   0  0  0  0  0  0  0  0  0  0  0  0
    0.1096    3.6795   -2.6036 N   0  0  0  0  0  0  0  0  0  0  0  0
    0.3554    2.5437   -1.7072 C   0  0  1  0  0  0  0  0  0  0  0  0
    1.3708    2.5922   -1.3139 H   0  0  0  0  0  0  0  0  0  0  0  0
   -0.6401    2.5480   -0.5758 C   0  0  0  0  0  0  0  0  0  0  0  0
   -1.9913    2.4285   -0.8438 C   0  0  0  0  0  0  0  0  0  0  0  0
   -2.9055    2.4322    0.1929 C   0  0  0  0  0  0  0  0  0  0  0  0
   -2.4699    2.5560    1.4988 C   0  0  0  0  0  0  0  0  0  0  0  0
   -1.1173    2.6758    1.7683 C   0  0  0  0  0  0  0  0  0  0  0  0
   -0.2018    2.6657    0.7293 C   0  0  0  0  0  0  0  0  0  0  0  0
   -0.6904    2.7973    3.0443 F   0  0  0  0  0  0  0  0  0  0  0  0
    0.1673    5.0964   -2.2358 C   0  0  0  0  0  0  0  0  0  0  0  0
   -1.2440    5.6016   -1.9292 C   0  0  0  0  0  0  0  0  0  0  0  0
   -1.7281    4.9711   -0.7417 O   0  0  0  0  0  0  0  0  0  0  0  0
   -3.0706    5.3239   -0.4023 C   0  0  0  0  0  0  0  0  0  0  0  0
   -0.3827    0.9006   -4.8495 O   0  5  0  0  0  0  0  0  0  0  0  0
    2.6253    1.1694   -4.5558 H   0  0  0  0  0  0  0  0  0  0  0  0
    2.3059    1.7565   -2.9061 H   0  0  0  0  0  0  0  0  0  0  0  0
    3.9677    1.3550   -3.4018 H   0  0  0  0  0  0  0  0  0  0  0  0
    3.4423   -4.3481   -3.4323 H   0  0  0  0  0  0  0  0  0  0  0  0
    4.7498   -3.6429   -2.4518 H   0  0  0  0  0  0  0  0  0  0  0  0
    3.3070   -4.3180   -1.6577 H   0  0  0  0  0  0  0  0  0  0  0  0
    0.2094   -3.6158   -2.2517 H   0  0  0  0  0  0  0  0  0  0  0  0
    1.3953   -3.9010   -0.9553 H   0  0  0  0  0  0  0  0  0  0  0  0
    0.1967   -2.5951   -0.7935 H   0  0  0  0  0  0  0  0  0  0  0  0
   -2.3327    2.3324   -1.8639 H   0  0  0  0  0  0  0  0  0  0  0  0
   -3.9607    2.3388   -0.0176 H   0  0  0  0  0  0  0  0  0  0  0  0
   -3.1845    2.5597    2.3086 H   0  0  0  0  0  0  0  0  0  0  0  0
    0.8540    2.7547    0.9386 H   0  0  0  0  0  0  0  0  0  0  0  0
    0.7962    5.2176   -1.3538 H   0  0  0  0  0  0  0  0  0  0  0  0
    0.5867    5.6696   -3.0626 H   0  0  0  0  0  0  0  0  0  0  0  0
   -1.2195    6.6815   -1.7831 H   0  0  0  0  0  0  0  0  0  0  0  0
   -1.9045    5.3626   -2.7626 H   0  0  0  0  0  0  0  0  0  0  0  0
   -3.1554    6.4086   -0.3356 H   0  0  0  0  0  0  0  0  0  0  0  0
   -3.7491    4.9530   -1.1705 H   0  0  0  0  0  0  0  0  0  0  0  0
   -3.3313    4.8793    0.5582 H   0  0  0  0  0  0  0  0  0  0  0  0
  1  2  1  0  0  0  0
  1 30  1  0  0  0  0
  1 31  1  0  0  0  0
  1 32  1  0  0  0  0
  2  6  2  0  0  0  0
  2  3  1  0  0  0  0
  3  4  2  0  0  0  0
  3  9  1  0  0  0  0
  4  5  1  0  0  0  0
  4  8  1  0  0  0  0
  5  6  1  0  0  0  0
  5  7  1  0  0  0  0
  7 33  1  0  0  0  0
  7 34  1  0  0  0  0
  7 35  1  0  0  0  0
  8 36  1  0  0  0  0
  8 37  1  0  0  0  0
  8 38  1  0  0  0  0
  9 10  2  0  0  0  0
  9 11  1  0  0  0  0
 11 16  1  0  0  0  0
 11 12  2  0  0  0  0
 12 13  1  0  0  0  0
 12 29  1  0  0  0  0
 13 14  2  0  0  0  0
 13 15  1  0  0  0  0
 15 16  1  0  0  0  0
 15 25  1  0  0  0  0
 16 17  1  1  0  0  0
 16 18  1  0  0  0  0
 18 23  2  0  0  0  0
 18 19  1  0  0  0  0
 19 20  2  0  0  0  0
 19 39  1  0  0  0  0
 20 21  1  0  0  0  0
 20 40  1  0  0  0  0
 21 22  2  0  0  0  0
 21 41  1  0  0  0  0
 22 23  1  0  0  0  0
 22 24  1  0  0  0  0
 23 42  1  0  0  0  0
 25 26  1  0  0  0  0
 25 43  1  0  0  0  0
 25 44  1  0  0  0  0
 26 27  1  0  0  0  0
 26 45  1  0  0  0  0
 26 46  1  0  0  0  0
 27 28  1  0  0  0  0
 28 47  1  0  0  0  0
 28 48  1  0  0  0  0
 28 49  1  0  0  0  0
M  CHG  1  29  -1
M  END
$$$$
ZINC49593823
 OpenBabel01252620473D

 41 42  0  0  1  0  0  0  0  0999 V2000
   -0.1438    2.0680    0.5512 C   0  0  0  0  0  0  0  0  0  0  0  0
   -0.1370    0.6037    0.1077 C   0  0  1  0  0  0  0  0  0  0  0  0
   -1.1601    0.2291    0.0740 H   0  0  0  0  0  0  0  0  0  0  0  0
    0.4931    0.4941   -1.2827 C   0  0  0  0  0  0  0  0  0  0  0  0
    1.9180    1.0509   -1.2442 C   0  0  1  0  0  0  0  0  0  0  0  0
    1.8939    2.0899   -0.9155 H   0  0  0  0  0  0  0  0  0  0  0  0
    2.7587    0.2245   -0.2659 C   0  0  0  0  0  0  0  0  0  0  0  0
    2.0830    0.2050    1.0387 N   0  0  0  0  0  0  0  0  0  0  0  0
    0.6797   -0.2279    1.1018 C   0  0  0  0  0  0  0  0  0  0  0  0
    2.7376    0.5765    2.1567 C   0  0  0  0  0  0  0  0  0  0  0  0
    2.1401    0.6581    3.2120 O   0  0  0  0  0  0  0  0  0  0  0  0
    4.1827    0.8847    2.0994 C   0  0  0  0  0  0  0  0  0  0  0  0
    4.6947    1.9739    2.8095 C   0  0  0  0  0  0  0  0  0  0  0  0
    6.0439    2.2647    2.7583 C   0  0  0  0  0  0  0  0  0  0  0  0
    6.8973    1.4828    2.0066 C   0  0  0  0  0  0  0  0  0  0  0  0
    6.3992    0.3885    1.2900 C   0  0  0  0  0  0  0  0  0  0  0  0
    5.0365    0.0869    1.3425 C   0  0  0  0  0  0  0  0  0  0  0  0
    7.3090   -0.4446    0.4883 C   0  0  0  0  0  0  0  0  0  0  0  0
    8.6278   -0.1539    0.4431 C   0  0  0  0  0  0  0  0  0  0  0  0
    9.5035   -0.9558   -0.3284 C   0  0  0  0  0  0  0  0  0  0  0  0
    9.0655   -1.9129   -0.9549 O   0  0  0  0  0  0  0  0  0  0  0  0
   10.6990   -0.6922   -0.3695 O   0  0  0  0  0  1  0  0  0  0  0  0
    2.5352    0.9718   -2.6420 C   0  0  0  0  0  0  0  0  0  0  0  0
    0.8794    2.4422    0.5847 H   0  0  0  0  0  0  0  0  0  0  0  0
   -0.7240    2.6595   -0.1570 H   0  0  0  0  0  0  0  0  0  0  0  0
   -0.5916    2.1455    1.5420 H   0  0  0  0  0  0  0  0  0  0  0  0
    0.5201   -0.5520   -1.5877 H   0  0  0  0  0  0  0  0  0  0  0  0
   -0.1008    1.0650   -1.9965 H   0  0  0  0  0  0  0  0  0  0  0  0
    2.8593   -0.7941   -0.6406 H   0  0  0  0  0  0  0  0  0  0  0  0
    3.7450    0.6761   -0.1598 H   0  0  0  0  0  0  0  0  0  0  0  0
    0.2942   -0.0746    2.1097 H   0  0  0  0  0  0  0  0  0  0  0  0
    0.6107   -1.2834    0.8385 H   0  0  0  0  0  0  0  0  0  0  0  0
    4.0333    2.5905    3.4000 H   0  0  0  0  0  0  0  0  0  0  0  0
    6.4330    3.1083    3.3089 H   0  0  0  0  0  0  0  0  0  0  0  0
    7.9513    1.7158    1.9710 H   0  0  0  0  0  0  0  0  0  0  0  0
    4.6463   -0.7585    0.7952 H   0  0  0  0  0  0  0  0  0  0  0  0
    6.9228   -1.2885   -0.0640 H   0  0  0  0  0  0  0  0  0  0  0  0
    9.0140    0.6900    0.9954 H   0  0  0  0  0  0  0  0  0  0  0  0
    1.9349    1.5580   -3.3379 H   0  0  0  0  0  0  0  0  0  0  0  0
    3.5500    1.3685   -2.6141 H   0  0  0  0  0  0  0  0  0  0  0  0
    2.5602   -0.0674   -2.9698 H   0  0  0  0  0  0  0  0  0  0  0  0
  1  2  1  0  0  0  0
  1 24  1  0  0  0  0
  1 25  1  0  0  0  0
  1 26  1  0  0  0  0
  2  3  1  6  0  0  0
  2  9  1  0  0  0  0
  2  4  1  0  0  0  0
  4  5  1  0  0  0  0
  4 27  1  0  0  0  0
  4 28  1  0  0  0  0
  5  6  1  1  0  0  0
  5  7  1  0  0  0  0
  5 23  1  0  0  0  0
  7  8  1  0  0  0  0
  7 29  1  0  0  0  0
  7 30  1  0  0  0  0
  8  9  1  0  0  0  0
  8 10  1  0  0  0  0
  9 31  1  0  0  0  0
  9 32  1  0  0  0  0
 10 11  2  0  0  0  0
 10 12  1  0  0  0  0
 12 17  2  0  0  0  0
 12 13  1  0  0  0  0
 13 14  2  0  0  0  0
 13 33  1  0  0  0  0
 14 15  1  0  0  0  0
 14 34  1  0  0  0  0
 15 16  2  0  0  0  0
 15 35  1  0  0  0  0
 16 17  1  0  0  0  0
 16 18  1  0  0  0  0
 17 36  1  0  0  0  0
 18 19  2  0  0  0  0
 18 37  1  0  0  0  0
 19 20  1  0  0  0  0
 19 38  1  0  0  0  0
 20 21  2  0  0  0  0
 20 22  1  0  0  0  0
 23 39  1  0  0  0  0
 23 40  1  0  0  0  0
 23 41  1  0  0  0  0
M  END
$$$$
ZINC09491018
 OpenBabel01252620473D

 49 51  0  0  0  0  0  0  0  0999 V2000
   -0.0126    1.3748   -0.1792 C   0  0  0  0  0  0  0  0  0  0  0  0
    1.1745    2.0810   -0.1820 C   0  0  0  0  0  0  0  0  0  0  0  0
    2.3796    1.4110   -0.0183 C   0  0  0  0  0  0  0  0  0  0  0  0
    2.3872    0.0321    0.1478 C   0  0  0  0  0  0  0  0  0  0  0  0
    1.1970   -0.6681    0.1498 C   0  0  0  0  0  0  0  0  0  0  0  0
   -0.0017    0.0022   -0.0136 C   0  0  0  0  0  0  0  0  0  0  0  0
    1.2055   -2.4175    0.3599 S   0  0  0  0  0  0  0  0  0  0  0  0
    0.0026   -2.9022   -0.2210 O   0  0  0  0  0  0  0  0  0  0  0  0
    2.4874   -2.8700   -0.0537 O   0  0  0  0  0  0  0  0  0  0  0  0
    1.0999   -2.7160    1.9853 N   0  0  0  0  0  0  0  0  0  0  0  0
    2.3133   -2.8285    2.8061 C   0  0  0  0  0  0  0  0  0  0  0  0
    2.2014   -1.8593    3.9871 C   0  0  0  0  0  0  0  0  0  0  0  0
    0.9014   -2.1344    4.7463 C   0  0  0  0  0  0  0  0  0  0  0  0
   -0.2926   -1.9035    3.8171 C   0  0  0  0  0  0  0  0  0  0  0  0
   -0.2091   -2.8672    2.6352 C   0  0  0  0  0  0  0  0  0  0  0  0
    3.5839    2.1235   -0.0212 N   0  0  0  0  0  0  0  0  0  0  0  0
    3.6280    3.3746    0.4780 C   0  0  0  0  0  0  0  0  0  0  0  0
    2.6493    3.8477    1.0159 O   0  0  0  0  0  0  0  0  0  0  0  0
    4.8932    4.1858    0.3677 C   0  0  0  0  0  0  0  0  0  0  0  0
    4.6909    5.4677    0.9659 O   0  0  0  0  0  0  0  0  0  0  0  0
    5.7326    6.3203    0.9511 C   0  0  0  0  0  0  0  0  0  0  0  0
    6.7836    5.9857    0.4447 O   0  0  0  0  0  0  0  0  0  0  0  0
    5.5957    7.6706    1.5545 C   0  0  0  0  0  0  0  0  0  0  0  0
    6.6608    8.5496    1.5358 C   0  0  0  0  0  0  0  0  0  0  0  0
    6.4941    9.8257    2.1194 C   0  0  0  0  0  0  0  0  0  0  0  0
    5.3018   10.1350    2.6715 N   0  0  0  0  0  0  0  0  0  0  0  0
    4.2902    9.2289    2.6600 C   0  0  0  0  0  0  0  0  0  0  0  0
    4.4362    8.0430    2.1145 N   0  0  0  0  0  0  0  0  0  0  0  0
    3.1061    9.5564    3.2172 O   0  5  0  0  0  0  0  0  0  0  0  0
    7.4093   10.6313    2.1245 O   0  0  0  0  0  0  0  0  0  0  0  0
   -0.9506    1.8959   -0.3019 H   0  0  0  0  0  0  0  0  0  0  0  0
    1.1654    3.1532   -0.3118 H   0  0  0  0  0  0  0  0  0  0  0  0
    3.3229   -0.4920    0.2751 H   0  0  0  0  0  0  0  0  0  0  0  0
   -0.9312   -0.5478   -0.0118 H   0  0  0  0  0  0  0  0  0  0  0  0
    2.4094   -3.8485    3.1783 H   0  0  0  0  0  0  0  0  0  0  0  0
    3.1860   -2.5730    2.2051 H   0  0  0  0  0  0  0  0  0  0  0  0
    3.0503   -2.0013    4.6560 H   0  0  0  0  0  0  0  0  0  0  0  0
    2.1967   -0.8340    3.6172 H   0  0  0  0  0  0  0  0  0  0  0  0
    0.8959   -3.1672    5.0947 H   0  0  0  0  0  0  0  0  0  0  0  0
    0.8311   -1.4624    5.6016 H   0  0  0  0  0  0  0  0  0  0  0  0
   -1.2188   -2.0769    4.3649 H   0  0  0  0  0  0  0  0  0  0  0  0
   -0.2738   -0.8778    3.4487 H   0  0  0  0  0  0  0  0  0  0  0  0
   -1.0001   -2.6371    1.9215 H   0  0  0  0  0  0  0  0  0  0  0  0
   -0.3233   -3.8904    2.9932 H   0  0  0  0  0  0  0  0  0  0  0  0
    4.3871    1.7169   -0.3824 H   0  0  0  0  0  0  0  0  0  0  0  0
    5.7026    3.6682    0.8826 H   0  0  0  0  0  0  0  0  0  0  0  0
    5.1533    4.3122   -0.6833 H   0  0  0  0  0  0  0  0  0  0  0  0
    7.6009    8.2676    1.0852 H   0  0  0  0  0  0  0  0  0  0  0  0
    5.1675   11.0057    3.0774 H   0  0  0  0  0  0  0  0  0  0  0  0
  1  6  2  0  0  0  0
  1  2  1  0  0  0  0
  1 31  1  0  0  0  0
  2  3  2  0  0  0  0
  2 32  1  0  0  0  0
  3  4  1  0  0  0  0
  3 16  1  0  0  0  0
  4  5  2  0  0  0  0
  4 33  1  0  0  0  0
  5  6  1  0  0  0  0
  5  7  1  0  0  0  0
  6 34  1  0  0  0  0
  7  8  2  0  0  0  0
  7  9  2  0  0  0  0
  7 10  1  0  0  0  0
 10 15  1  0  0  0  0
 10 11  1  0  0  0  0
 11 12  1  0  0  0  0
 11 35  1  0  0  0  0
 11 36  1  0  0  0  0
 12 13  1  0  0  0  0
 12 37  1  0  0  0  0
 12 38  1  0  0  0  0
 13 14  1  0  0  0  0
 13 39  1  0  0  0  0
 13 40  1  0  0  0  0
 14 15  1  0  0  0  0
 14 41  1  0  0  0  0
 14 42  1  0  0  0  0
 15 43  1  0  0  0  0
 15 44  1  0  0  0  0
 16 17  1  0  0  0  0
 16 45  1  0  0  0  0
 17 18  2  0  0  0  0
 17 19  1  0  0  0  0
 19 20  1  0  0  0  0
 19 46  1  0  0  0  0
 19 47  1  0  0  0  0
 20 21  1  0  0  0  0
 21 22  2  0  0  0  0
 21 23  1  0  0  0  0
 23 28  1  0  0  0  0
 23 24  2  0  0  0  0
 24 25  1  0  0  0  0
 24 48  1  0  0  0  0
 25 26  1  0  0  0  0
 25 30  2  0  0  0  0
 26 27  1  0  0  0  0
 26 49  1  0  0  0  0
 27 28  2  0  0  0  0
 27 29  1  0  0  0  0
M  CHG  1  29  -1
M  END
$$$$
ZINC19767421
 OpenBabel01252620473D

 29 31  0  0  0  0  0  0  0  0999 V2000
   -2.4989    0.9866    0.0192 C   0  0  0  0  0  0  0  0  0  0  0  0
   -1.1978    1.7470    0.0172 C   0  0  0  0  0  0  0  0  0  0  0  0
   -1.2008    3.1494    0.0299 C   0  0  0  0  0  0  0  0  0  0  0  0
   -0.0334    3.8311    0.0220 C   0  0  0  0  0  0  0  0  0  0  0  0
    1.1563    3.1700    0.0076 N   0  0  0  0  0  0  0  0  0  0  0  0
    1.1935    1.8028    0.0003 C   0  0  0  0  0  0  0  0  0  0  0  0
   -0.0126    1.0758    0.0080 C   0  0  0  0  0  0  0  0  0  0  0  0
    2.4626    1.4071   -0.0135 N   0  0  0  0  0  0  0  0  0  0  0  0
    3.2661    2.4708   -0.0157 C   0  0  0  0  0  0  0  0  0  0  0  0
    2.4644    3.6135   -0.0024 C   0  0  0  0  0  0  0  0  0  0  0  0
    2.9096    4.9745    0.0003 C   0  0  0  0  0  0  0  0  0  0  0  0
    3.2627    6.0542    0.0024 N   0  0  0  0  0  0  0  0  0  0  0  0
    4.7476    2.4448   -0.0301 C   0  0  0  0  0  0  0  0  0  0  0  0
    5.4580    3.4203   -0.7287 C   0  0  0  0  0  0  0  0  0  0  0  0
    6.8377    3.3942   -0.7337 C   0  0  0  0  0  0  0  0  0  0  0  0
    7.5158    2.3963   -0.0569 C   0  0  0  0  0  0  0  0  0  0  0  0
    6.8164    1.4225    0.6332 C   0  0  0  0  0  0  0  0  0  0  0  0
    5.4367    1.4414    0.6502 C   0  0  0  0  0  0  0  0  0  0  0  0
   -3.3387    1.6970    0.0270 H   0  0  0  0  0  0  0  0  0  0  0  0
   -2.5496    0.3491    0.9142 H   0  0  0  0  0  0  0  0  0  0  0  0
   -2.5580    0.3588   -0.8821 H   0  0  0  0  0  0  0  0  0  0  0  0
   -2.1379    3.6860    0.0417 H   0  0  0  0  0  0  0  0  0  0  0  0
   -0.0448    4.9111    0.0275 H   0  0  0  0  0  0  0  0  0  0  0  0
    0.0021   -0.0041    0.0020 H   0  0  0  0  0  0  0  0  0  0  0  0
    4.9296    4.1973   -1.2611 H   0  0  0  0  0  0  0  0  0  0  0  0
    7.3891    4.1518   -1.2708 H   0  0  0  0  0  0  0  0  0  0  0  0
    8.5956    2.3775   -0.0671 H   0  0  0  0  0  0  0  0  0  0  0  0
    7.3512    0.6457    1.1595 H   0  0  0  0  0  0  0  0  0  0  0  0
    4.8918    0.6809    1.1897 H   0  0  0  0  0  0  0  0  0  0  0  0
  1  2  1  0  0  0  0
  1 19  1  0  0  0  0
  1 20  1  0  0  0  0
  1 21  1  0  0  0  0
  2  7  2  0  0  0  0
  2  3  1  0  0  0  0
  3  4  2  0  0  0  0
  3 22  1  0  0  0  0
  4  5  1  0  0  0  0
  4 23  1  0  0  0  0
  5 10  1  0  0  0  0
  5  6  1  0  0  0  0
  6  7  1  0  0  0  0
  6  8  2  0  0  0  0
  7 24  1  0  0  0  0
  8  9  1  0  0  0  0
  9 10  2  0  0  0  0
  9 13  1  0  0  0  0
 10 11  1  0  0  0  0
 11 12  3  0  0  0  0
 13 18  2  0  0  0  0
 13 14  1  0  0  0  0
 14 15  2  0  0  0  0
 14 25  1  0  0  0  0
 15 16  1  0  0  0  0
 15 26  1  0  0  0  0
 16 17  2  0  0  0  0
 16 27  1  0  0  0  0
 17 18  1  0  0  0  0
 17 28  1  0  0  0  0
 18 29  1  0  0  0  0
M  END
$$$$
ZINC19770053
 OpenBabel01252620473D

 26 28  0  0  0  0  0  0  0  0999 V2000
   -1.0815    1.9161    0.0166 C   0  0  0  0  0  0  0  0  0  0  0  0
   -0.8664    3.2743    0.0271 C   0  0  0  0  0  0  0  0  0  0  0  0
    0.4247    3.7374    0.0174 C   0  0  0  0  0  0  0  0  0  0  0  0
    1.3604    2.2169    0.0010 S   0  0  0  0  0  0  0  0  0  0  0  0
   -0.0126    1.0758    0.0080 C   0  0  0  0  0  0  0  0  0  0  0  0
    0.9127    5.1287    0.0203 C   0  0  0  0  0  0  0  0  0  0  0  0
    2.2963    5.3710    0.0145 C   0  0  0  0  0  0  0  0  0  0  0  0
    2.7594    6.6548    0.0131 C   0  0  0  0  0  0  0  0  0  0  0  0
    1.8204    7.6992    0.0266 C   0  0  0  0  0  0  0  0  0  0  0  0
    0.4360    7.3932    0.0375 C   0  0  0  0  0  0  0  0  0  0  0  0
    0.0363    6.1225    0.0340 N   0  0  0  0  0  0  0  0  0  0  0  0
   -0.4424    8.4061    0.0508 N   0  0  0  0  0  0  0  0  0  0  0  0
   -0.0224    9.6556    0.0536 C   0  0  0  0  0  0  0  0  0  0  0  0
    1.2647    9.9826    0.0437 N   0  0  0  0  0  0  0  0  0  0  0  0
    2.2112    9.0558    0.0302 C   0  0  0  0  0  0  0  0  0  0  0  0
    3.5192    9.4006    0.0198 O   0  0  0  0  0  0  0  0  0  0  0  0
   -0.9428   10.6483    0.0668 O   0  5  0  0  0  0  0  0  0  0  0  0
    4.2383    6.9440    0.0007 C   0  0  0  0  0  0  0  0  0  0  0  0
    4.9490    5.7390   -0.0115 F   0  0  0  0  0  0  0  0  0  0  0  0
    4.5589    7.6860   -1.1412 F   0  0  0  0  0  0  0  0  0  0  0  0
    4.5801    7.6754    1.1432 F   0  0  0  0  0  0  0  0  0  0  0  0
   -2.0869    1.5218    0.0187 H   0  0  0  0  0  0  0  0  0  0  0  0
   -1.6981    3.9631    0.0387 H   0  0  0  0  0  0  0  0  0  0  0  0
    0.0021   -0.0041    0.0020 H   0  0  0  0  0  0  0  0  0  0  0  0
    2.9912    4.5442    0.0075 H   0  0  0  0  0  0  0  0  0  0  0  0
    1.5632   11.0413    0.0466 H   0  0  0  0  0  0  0  0  0  0  0  0
  1  5  2  0  0  0  0
  1  2  1  0  0  0  0
  1 22  1  0  0  0  0
  2  3  2  0  0  0  0
  2 23  1  0  0  0  0
  3  4  1  0  0  0  0
  3  6  1  0  0  0  0
  4  5  1  0  0  0  0
  5 24  1  0  0  0  0
  6 11  2  0  0  0  0
  6  7  1  0  0  0  0
  7  8  2  0  0  0  0
  7 25  1  0  0  0  0
  8  9  1  0  0  0  0
  8 18  1  0  0  0  0
  9 15  1  0  0  0  0
  9 10  2  0  0  0  0
 10 11  1  0  0  0  0
 10 12  1  0  0  0  0
 12 13  2  0  0  0  0
 13 14  1  0  0  0  0
 13 17  1  0  0  0  0
 14 15  1  0  0  0  0
 14 26  1  0  0  0  0
 15 16  2  0  0  0  0
 18 19  1  0  0  0  0
 18 20  1  0  0  0  0
 18 21  1  0  0  0  0
M  CHG  1  17  -1
M  END
$$$$
ZINC20254657
 OpenBabel01252620473D

 40 41  0  0  0  0  0  0  0  0999 V2000
    5.9037    8.1649    1.8940 C   0  0  0  0  0  0  0  0  0  0  0  0
    5.9421    7.7741    0.4152 C   0  0  0  0  0  0  0  0  0  0  0  0
    5.9167    6.3143    0.2951 N   0  0  0  0  0  0  0  0  0  0  0  0
    4.7290    5.6811    0.2042 C   0  0  0  0  0  0  0  0  0  0  0  0
    3.6850    6.3058    0.2218 O   0  0  0  0  0  0  0  0  0  0  0  0
    4.7302    4.2121    0.0837 C   0  0  0  0  0  0  0  0  0  0  0  0
    3.5521    3.4951   -0.0132 C   0  0  0  0  0  0  0  0  0  0  0  0
    3.5800    2.1461    0.0027 N   0  0  0  0  0  0  0  0  0  0  0  0
    2.3837    1.4222    0.0177 C   0  0  0  0  0  0  0  0  0  0  0  0
    1.1654    2.0929    0.0163 C   0  0  0  0  0  0  0  0  0  0  0  0
   -0.0198    1.3833    0.0311 C   0  0  0  0  0  0  0  0  0  0  0  0
   -0.0031    0.0017    0.0474 C   0  0  0  0  0  0  0  0  0  0  0  0
    1.2161   -0.6816    0.0490 C   0  0  0  0  0  0  0  0  0  0  0  0
    2.4128    0.0368    0.0340 C   0  0  0  0  0  0  0  0  0  0  0  0
    1.2383   -2.1580    0.0669 C   0  0  0  0  0  0  0  0  0  0  0  0
    0.1955   -2.7809    0.0803 O   0  0  0  0  0  0  0  0  0  0  0  0
    2.4149   -2.8140    0.0684 O   0  0  0  0  0  1  0  0  0  0  0  0
   -1.4955   -0.8849    0.0654 Cl  0  0  0  0  0  0  0  0  0  0  0  0
    6.0422    3.5405    0.0772 C   0  0  0  0  0  0  0  0  0  0  0  0
    6.1240    2.3300   -0.0145 O   0  0  0  0  0  0  0  0  0  0  0  0
    7.1500    4.3045    0.1704 N   0  0  0  0  0  0  0  0  0  0  0  0
    7.0741    5.6385    0.2774 C   0  0  0  0  0  0  0  0  0  0  0  0
    8.5330    6.5263    0.3974 S   0  0  0  0  0  0  0  0  0  0  0  0
    8.4661    3.6611    0.1611 C   0  0  0  0  0  0  0  0  0  0  0  0
    8.8767    3.3191    1.5948 C   0  0  0  0  0  0  0  0  0  0  0  0
    5.9228    9.2610    1.9842 H   0  0  0  0  0  0  0  0  0  0  0  0
    6.7779    7.7394    2.4085 H   0  0  0  0  0  0  0  0  0  0  0  0
    4.9828    7.7752    2.3524 H   0  0  0  0  0  0  0  0  0  0  0  0
    5.0679    8.1996   -0.0993 H   0  0  0  0  0  0  0  0  0  0  0  0
    6.8629    8.1638   -0.0433 H   0  0  0  0  0  0  0  0  0  0  0  0
    2.5920    4.0243   -0.1033 H   0  0  0  0  0  0  0  0  0  0  0  0
    4.5438    1.6159    0.0039 H   0  0  0  0  0  0  0  0  0  0  0  0
    1.1458    3.1726    0.0036 H   0  0  0  0  0  0  0  0  0  0  0  0
   -0.9626    1.9101    0.0253 H   0  0  0  0  0  0  0  0  0  0  0  0
    3.3582   -0.4852    0.0355 H   0  0  0  0  0  0  0  0  0  0  0  0
    8.4192    2.7390   -0.4368 H   0  0  0  0  0  0  0  0  0  0  0  0
    9.2060    4.3460   -0.2788 H   0  0  0  0  0  0  0  0  0  0  0  0
    9.8649    2.8360    1.5878 H   0  0  0  0  0  0  0  0  0  0  0  0
    8.1368    2.6342    2.0346 H   0  0  0  0  0  0  0  0  0  0  0  0
    8.9236    4.2413    2.1926 H   0  0  0  0  0  0  0  0  0  0  0  0
  1  2  1  0  0  0  0
  1 26  1  0  0  0  0
  1 27  1  0  0  0  0
  1 28  1  0  0  0  0
  2  3  1  0  0  0  0
  2 29  1  0  0  0  0
  2 30  1  0  0  0  0
  3 22  1  0  0  0  0
  3  4  1  0  0  0  0
  4  5  2  0  0  0  0
  4  6  1  0  0  0  0
  6  7  2  0  0  0  0
  6 19  1  0  0  0  0
  7  8  1  0  0  0  0
  7 31  1  0  0  0  0
  8  9  1  0  0  0  0
  8 32  1  0  0  0  0
  9 14  2  0  0  0  0
  9 10  1  0  0  0  0
 10 11  2  0  0  0  0
 10 33  1  0  0  0  0
 11 12  1  0  0  0  0
 11 34  1  0  0  0  0
 12 13  2  0  0  0  0
 12 18  1  0  0  0  0
 13 14  1  0  0  0  0
 13 15  1  0  0  0  0
 14 35  1  0  0  0  0
 15 16  2  0  0  0  0
 15 17  1  0  0  0  0
 19 20  2  0  0  0  0
 19 21  1  0  0  0  0
 21 22  1  0  0  0  0
 21 24  1  0  0  0  0
 22 23  2  0  0  0  0
 24 25  1  0  0  0  0
 24 36  1  0  0  0  0
 24 37  1  0  0  0  0
 25 38  1  0  0  0  0
 25 39  1  0  0  0  0
 25 40  1  0  0  0  0
M  END
$$$$
ZINC40322467
 OpenBabel01252620473D

 34 35  0  0  0  0  0  0  0  0999 V2000
   -0.0187    1.5258    0.0104 C   0  0  0  0  0  0  0  0  0  0  0  0
    0.0021   -0.0041    0.0020 C   0  0  0  0  0  0  0  0  0  0  0  0
    0.6709   -0.4649   -1.1737 O   0  0  0  0  0  0  0  0  0  0  0  0
    0.7760   -1.8002   -1.3350 C   0  0  0  0  0  0  0  0  0  0  0  0
    0.3116   -2.5523   -0.4989 O   0  0  0  0  0  0  0  0  0  0  0  0
    1.4480   -2.3436   -2.5147 C   0  0  0  0  0  0  0  0  0  0  0  0
    2.0190   -1.4849   -3.5293 C   0  0  0  0  0  0  0  0  0  0  0  0
    2.6086   -2.1102   -4.5631 C   0  0  0  0  0  0  0  0  0  0  0  0
    2.3980   -3.8339   -4.1760 S   0  0  0  0  0  0  0  0  0  0  0  0
    1.5770   -3.7124   -2.7178 C   0  0  0  0  0  0  0  0  0  0  0  0
    1.1304   -4.7373   -1.9065 N   0  0  0  0  0  2  0  0  0  0  0  0
    1.3931   -6.3131   -2.3428 S   0  0  0  0  0  0  0  0  0  0  0  0
    0.6289   -6.5417   -3.5187 O   0  0  0  0  0  0  0  0  0  0  0  0
    2.7984   -6.5187   -2.2955 O   0  0  0  0  0  0  0  0  0  0  0  0
    0.6932   -7.3261   -1.0824 C   0  0  0  0  0  0  0  0  0  0  0  0
   -0.3489   -8.1754   -1.2306 C   0  0  0  0  0  0  0  0  0  0  0  0
   -0.5782   -8.7616   -0.0367 N   0  0  0  0  0  0  0  0  0  0  0  0
    0.3532   -8.2579    0.8803 N   0  0  0  0  0  0  0  0  0  0  0  0
    1.1222   -7.3995    0.2527 C   0  0  0  0  0  0  0  0  0  0  0  0
    2.1827   -6.6804    0.8164 N   0  0  0  0  0  0  0  0  0  0  0  0
   -1.6193   -9.7516    0.2500 C   0  0  0  0  0  0  0  0  0  0  0  0
    1.0039    1.9031    0.0027 H   0  0  0  0  0  0  0  0  0  0  0  0
   -0.5459    1.8868   -0.8726 H   0  0  0  0  0  0  0  0  0  0  0  0
   -0.5289    1.8773    0.9072 H   0  0  0  0  0  0  0  0  0  0  0  0
    0.5293   -0.3651    0.8851 H   0  0  0  0  0  0  0  0  0  0  0  0
   -1.0205   -0.3814    0.0098 H   0  0  0  0  0  0  0  0  0  0  0  0
    1.9741   -0.4080   -3.4606 H   0  0  0  0  0  0  0  0  0  0  0  0
    3.0938   -1.6714   -5.4225 H   0  0  0  0  0  0  0  0  0  0  0  0
   -0.8997   -8.3531   -2.1424 H   0  0  0  0  0  0  0  0  0  0  0  0
    2.6950   -6.0638    0.2703 H   0  0  0  0  0  0  0  0  0  0  0  0
    2.4053   -6.7988    1.7531 H   0  0  0  0  0  0  0  0  0  0  0  0
   -1.2264  -10.7531    0.0751 H   0  0  0  0  0  0  0  0  0  0  0  0
   -1.9309   -9.6602    1.2905 H   0  0  0  0  0  0  0  0  0  0  0  0
   -2.4752   -9.5780   -0.4022 H   0  0  0  0  0  0  0  0  0  0  0  0
  1  2  1  0  0  0  0
  1 22  1  0  0  0  0
  1 23  1  0  0  0  0
  1 24  1  0  0  0  0
  2  3  1  0  0  0  0
  2 25  1  0  0  0  0
  2 26  1  0  0  0  0
  3  4  1  0  0  0  0
  4  5  2  0  0  0  0
  4  6  1  0  0  0  0
  6 10  2  0  0  0  0
  6  7  1  0  0  0  0
  7  8  2  0  0  0  0
  7 27  1  0  0  0  0
  8  9  1  0  0  0  0
  8 28  1  0  0  0  0
  9 10  1  0  0  0  0
 10 11  1  0  0  0  0
 11 12  1  0  0  0  0
 12 13  2  0  0  0  0
 12 14  2  0  0  0  0
 12 15  1  0  0  0  0
 15 19  1  0  0  0  0
 15 16  2  0  0  0  0
 16 17  1  0  0  0  0
 16 29  1  0  0  0  0
 17 18  1  0  0  0  0
 17 21  1  0  0  0  0
 18 19  2  0  0  0  0
 19 20  1  0  0  0  0
 20 30  1  0  0  0  0
 20 31  1  0  0  0  0
 21 32  1  0  0  0  0
 21 33  1  0  0  0  0
 21 34  1  0  0  0  0
M  END
$$$$
ZINC28808698
 OpenBabel01252620473D

 41 42  0  0  0  0  0  0  0  0999 V2000
    4.7017   -6.0123    3.8237 C   0  0  0  0  0  0  0  0  0  0  0  0
    4.2293   -5.3817    2.5121 C   0  0  0  0  0  0  0  0  0  0  0  0
    3.3388   -4.2720    2.8017 O   0  0  0  0  0  0  0  0  0  0  0  0
    2.8310   -3.6043    1.7477 C   0  0  0  0  0  0  0  0  0  0  0  0
    3.1240   -3.9398    0.6177 O   0  0  0  0  0  0  0  0  0  0  0  0
    1.9176   -2.4638    1.9663 C   0  0  0  0  0  0  0  0  0  0  0  0
    1.5790   -2.0759    3.2646 C   0  0  0  0  0  0  0  0  0  0  0  0
    0.7259   -1.0105    3.4659 C   0  0  0  0  0  0  0  0  0  0  0  0
    0.2032   -0.3235    2.3860 C   0  0  0  0  0  0  0  0  0  0  0  0
    0.5333   -0.7015    1.0898 C   0  0  0  0  0  0  0  0  0  0  0  0
    1.3854   -1.7744    0.8764 C   0  0  0  0  0  0  0  0  0  0  0  0
    0.0021   -0.0041    0.0020 N   0  0  0  0  0  2  0  0  0  0  0  0
   -0.0204    1.6518    0.0111 S   0  0  0  0  0  0  0  0  0  0  0  0
   -0.5885    2.0570   -1.2267 O   0  0  0  0  0  0  0  0  0  0  0  0
   -0.5648    2.0437    1.2638 O   0  0  0  0  0  0  0  0  0  0  0  0
    1.6555    2.1956   -0.0020 C   0  0  0  0  0  0  0  0  0  0  0  0
    2.3200    2.4070    1.1936 C   0  0  0  0  0  0  0  0  0  0  0  0
    3.6333    2.8271    1.1917 C   0  0  0  0  0  0  0  0  0  0  0  0
    4.2905    3.0501   -0.0225 C   0  0  0  0  0  0  0  0  0  0  0  0
    3.6104    2.8397   -1.2263 C   0  0  0  0  0  0  0  0  0  0  0  0
    2.2988    2.4145   -1.2077 C   0  0  0  0  0  0  0  0  0  0  0  0
    5.6903    3.5043   -0.0335 C   0  0  0  0  0  0  0  0  0  0  0  0
    6.3431    3.7063    1.1299 C   0  0  0  0  0  0  0  0  0  0  0  0
    7.7340    4.1576    1.1190 C   0  0  0  0  0  0  0  0  0  0  0  0
    8.3023    4.3510    0.0613 O   0  0  0  0  0  0  0  0  0  0  0  0
    8.3867    4.3595    2.2823 O   0  0  0  0  0  1  0  0  0  0  0  0
    5.3763   -6.8530    3.6043 H   0  0  0  0  0  0  0  0  0  0  0  0
    3.8318   -6.3781    4.3889 H   0  0  0  0  0  0  0  0  0  0  0  0
    5.2366   -5.2591    4.4209 H   0  0  0  0  0  0  0  0  0  0  0  0
    5.0992   -5.0159    1.9469 H   0  0  0  0  0  0  0  0  0  0  0  0
    3.6944   -6.1348    1.9149 H   0  0  0  0  0  0  0  0  0  0  0  0
    1.9848   -2.6102    4.1109 H   0  0  0  0  0  0  0  0  0  0  0  0
    0.4650   -0.7124    4.4706 H   0  0  0  0  0  0  0  0  0  0  0  0
   -0.4641    0.5097    2.5501 H   0  0  0  0  0  0  0  0  0  0  0  0
    1.6396   -2.0726   -0.1300 H   0  0  0  0  0  0  0  0  0  0  0  0
    1.8099    2.2382    2.1305 H   0  0  0  0  0  0  0  0  0  0  0  0
    4.1518    2.9875    2.1254 H   0  0  0  0  0  0  0  0  0  0  0  0
    4.1110    3.0101   -2.1680 H   0  0  0  0  0  0  0  0  0  0  0  0
    1.7723    2.2515   -2.1365 H   0  0  0  0  0  0  0  0  0  0  0  0
    6.2044    3.6791   -0.9902 H   0  0  0  0  0  0  0  0  0  0  0  0
    5.8290    3.5315    2.0866 H   0  0  0  0  0  0  0  0  0  0  0  0
  1  2  1  0  0  0  0
  1 27  1  0  0  0  0
  1 28  1  0  0  0  0
  1 29  1  0  0  0  0
  2  3  1  0  0  0  0
  2 30  1  0  0  0  0
  2 31  1  0  0  0  0
  3  4  1  0  0  0  0
  4  5  2  0  0  0  0
  4  6  1  0  0  0  0
  6 11  2  0  0  0  0
  6  7  1  0  0  0  0
  7  8  2  0  0  0  0
  7 32  1  0  0  0  0
  8  9  1  0  0  0  0
  8 33  1  0  0  0  0
  9 10  2  0  0  0  0
  9 34  1  0  0  0  0
 10 11  1  0  0  0  0
 10 12  1  0  0  0  0
 11 35  1  0  0  0  0
 12 13  1  0  0  0  0
 13 14  2  0  0  0  0
 13 15  2  0  0  0  0
 13 16  1  0  0  0  0
 16 21  2  0  0  0  0
 16 17  1  0  0  0  0
 17 18  2  0  0  0  0
 17 36  1  0  0  0  0
 18 19  1  0  0  0  0
 18 37  1  0  0  0  0
 19 20  2  0  0  0  0
 19 22  1  0  0  0  0
 20 21  1  0  0  0  0
 20 38  1  0  0  0  0
 21 39  1  0  0  0  0
 22 23  2  0  0  0  0
 22 40  1  0  0  0  0
 23 24  1  0  0  0  0
 23 41  1  0  0  0  0
 24 25  2  0  0  0  0
 24 26  1  0  0  0  0
M  END
$$$$
ZINC37310774
 OpenBabel01252620473D

 23 23  0  0  0  0  0  0  0  0999 V2000
   -0.0167    1.3774    0.0096 C   0  0  0  0  0  0  0  0  0  0  0  0
    1.1693    2.0897    0.0021 C   0  0  0  0  0  0  0  0  0  0  0  0
    2.3836    1.4279   -0.0130 C   0  0  0  0  0  0  0  0  0  0  0  0
    2.4226    0.0464   -0.0212 C   0  0  0  0  0  0  0  0  0  0  0  0
    1.2272   -0.6834   -0.0137 C   0  0  0  0  0  0  0  0  0  0  0  0
    0.0021   -0.0041    0.0020 C   0  0  0  0  0  0  0  0  0  0  0  0
   -1.1573   -0.6976    0.0098 F   0  0  0  0  0  0  0  0  0  0  0  0
    1.2579   -2.1548   -0.0223 C   0  0  0  0  0  0  0  0  0  0  0  0
    2.3299   -2.7442   -0.0361 O   0  0  0  0  0  0  0  0  0  0  0  0
    0.2115   -2.7885   -0.0157 O   0  0  0  0  0  1  0  0  0  0  0  0
    3.6099   -0.5980   -0.0368 F   0  0  0  0  0  0  0  0  0  0  0  0
    3.8857    2.3489   -0.0224 S   0  0  0  0  0  0  0  0  0  0  0  0
    4.6363    1.8075   -1.1006 O   0  0  0  0  0  0  0  0  0  0  0  0
    3.4766    3.7097   -0.0358 O   0  0  0  0  0  0  0  0  0  0  0  0
    4.6855    1.9525    1.5568 C   0  0  0  0  0  0  0  0  0  0  0  0
    6.0137    2.7051    1.6589 C   0  0  0  0  0  0  0  0  0  0  0  0
    5.7760    4.0820    1.5892 F   0  0  0  0  0  0  0  0  0  0  0  0
    6.6305    2.3994    2.8768 F   0  0  0  0  0  0  0  0  0  0  0  0
    6.8490    2.3221    0.6040 F   0  0  0  0  0  0  0  0  0  0  0  0
   -0.9601    1.9029    0.0259 H   0  0  0  0  0  0  0  0  0  0  0  0
    1.1468    3.1695    0.0077 H   0  0  0  0  0  0  0  0  0  0  0  0
    4.0347    2.2510    2.3787 H   0  0  0  0  0  0  0  0  0  0  0  0
    4.8706    0.8797    1.6111 H   0  0  0  0  0  0  0  0  0  0  0  0
  1  6  2  0  0  0  0
  1  2  1  0  0  0  0
  1 20  1  0  0  0  0
  2  3  2  0  0  0  0
  2 21  1  0  0  0  0
  3  4  1  0  0  0  0
  3 12  1  0  0  0  0
  4  5  2  0  0  0  0
  4 11  1  0  0  0  0
  5  6  1  0  0  0  0
  5  8  1  0  0  0  0
  6  7  1  0  0  0  0
  8  9  2  0  0  0  0
  8 10  1  0  0  0  0
 12 13  2  0  0  0  0
 12 14  2  0  0  0  0
 12 15  1  0  0  0  0
 15 16  1  0  0  0  0
 15 22  1  0  0  0  0
 15 23  1  0  0  0  0
 16 17  1  0  0  0  0
 16 18  1  0  0  0  0
 16 19  1  0  0  0  0
M  END
$$$$
ZINC39961169
 OpenBabel01252620473D

 50 52  0  0  1  0  0  0  0  0999 V2000
    1.3665   -0.0005    1.4108 C   0  0  0  0  0  0  0  0  0  0  0  0
    0.9432   -1.3853    0.9169 C   0  0  0  0  0  0  0  0  0  0  0  0
   -0.4829   -1.4549    0.8585 O   0  0  0  0  0  0  0  0  0  0  0  0
   -1.0201   -2.6121    0.4414 C   0  0  0  0  0  0  0  0  0  0  0  0
   -0.3031   -3.5355    0.1360 O   0  0  0  0  0  0  0  0  0  0  0  0
   -2.5173   -2.7597    0.3540 C   0  0  1  0  0  0  0  0  0  0  0  0
   -2.9950   -1.7941    0.1884 H   0  0  0  0  0  0  0  0  0  0  0  0
   -2.9143   -3.7750   -0.7495 C   0  0  2  0  0  0  0  0  0  0  0  0
   -3.8828   -3.4960   -1.1645 H   0  0  0  0  0  0  0  0  0  0  0  0
   -2.9982   -5.1357   -0.1874 N   0  0  0  0  0  0  0  0  0  0  0  0
   -3.8181   -5.1249    1.0619 C   0  0  1  0  0  0  0  0  0  0  0  0
   -3.6106   -5.9999    1.6777 H   0  0  0  0  0  0  0  0  0  0  0  0
   -3.1908   -3.5829    1.8583 S   0  0  0  0  0  0  0  0  0  0  0  0
   -5.2474   -5.0217    0.7575 N   0  0  0  0  0  0  0  0  0  0  0  0
   -6.1607   -5.2976    1.7094 C   0  0  0  0  0  0  0  0  0  0  0  0
   -5.7993   -5.6313    2.8180 O   0  0  0  0  0  0  0  0  0  0  0  0
   -7.6310   -5.1915    1.3963 C   0  0  0  0  0  0  0  0  0  0  0  0
   -8.5958   -5.6227    2.8707 S   0  0  0  0  0  0  0  0  0  0  0  0
  -10.2703   -5.4527    2.3491 C   0  0  0  0  0  0  0  0  0  0  0  0
  -10.5246   -5.0842    1.1015 N   0  0  0  0  0  0  0  0  0  0  0  0
  -11.7749   -4.9473    0.6783 C   0  0  0  0  0  0  0  0  0  0  0  0
  -12.0309   -4.5708   -0.5981 O   0  5  0  0  0  0  0  0  0  0  0  0
  -12.8217   -5.1968    1.5652 C   0  0  0  0  0  0  0  0  0  0  0  0
  -12.5148   -5.5790    2.8575 C   0  0  0  0  0  0  0  0  0  0  0  0
  -11.2446   -5.7016    3.2123 N   0  0  0  0  0  0  0  0  0  0  0  0
  -13.6134   -5.8585    3.8505 C   0  0  0  0  0  0  0  0  0  0  0  0
   -1.8782   -3.7523   -1.8437 C   0  0  0  0  0  0  0  0  0  0  0  0
   -0.9241   -4.7502   -1.9128 C   0  0  0  0  0  0  0  0  0  0  0  0
    0.0263   -4.7294   -2.9164 C   0  0  0  0  0  0  0  0  0  0  0  0
    0.0222   -3.7111   -3.8512 C   0  0  0  0  0  0  0  0  0  0  0  0
   -0.9325   -2.7137   -3.7827 C   0  0  0  0  0  0  0  0  0  0  0  0
   -1.8855   -2.7368   -2.7816 C   0  0  0  0  0  0  0  0  0  0  0  0
    2.4543    0.0525    1.4553 H   0  0  0  0  0  0  0  0  0  0  0  0
    0.9935    0.7597    0.7245 H   0  0  0  0  0  0  0  0  0  0  0  0
    0.9533    0.1729    2.4044 H   0  0  0  0  0  0  0  0  0  0  0  0
    1.3564   -1.5587   -0.0767 H   0  0  0  0  0  0  0  0  0  0  0  0
    1.3162   -2.1455    1.6032 H   0  0  0  0  0  0  0  0  0  0  0  0
   -3.3764   -5.7832   -0.8625 H   0  0  0  0  0  0  0  0  0  0  0  0
   -5.5364   -4.7549   -0.1292 H   0  0  0  0  0  0  0  0  0  0  0  0
   -7.8654   -4.1707    1.0944 H   0  0  0  0  0  0  0  0  0  0  0  0
   -7.8802   -5.8764    0.5859 H   0  0  0  0  0  0  0  0  0  0  0  0
  -13.8493   -5.0934    1.2495 H   0  0  0  0  0  0  0  0  0  0  0  0
  -13.8887   -6.9119    3.8008 H   0  0  0  0  0  0  0  0  0  0  0  0
  -13.2639   -5.6213    4.8554 H   0  0  0  0  0  0  0  0  0  0  0  0
  -14.4822   -5.2443    3.6136 H   0  0  0  0  0  0  0  0  0  0  0  0
   -0.9208   -5.5458   -1.1825 H   0  0  0  0  0  0  0  0  0  0  0  0
    0.7722   -5.5086   -2.9700 H   0  0  0  0  0  0  0  0  0  0  0  0
    0.7651   -3.6945   -4.6349 H   0  0  0  0  0  0  0  0  0  0  0  0
   -0.9355   -1.9179   -4.5128 H   0  0  0  0  0  0  0  0  0  0  0  0
   -2.6337   -1.9597   -2.7302 H   0  0  0  0  0  0  0  0  0  0  0  0
  1  2  1  0  0  0  0
  1 33  1  0  0  0  0
  1 34  1  0  0  0  0
  1 35  1  0  0  0  0
  2  3  1  0  0  0  0
  2 36  1  0  0  0  0
  2 37  1  0  0  0  0
  3  4  1  0  0  0  0
  4  5  2  0  0  0  0
  4  6  1  0  0  0  0
  6  7  1  6  0  0  0
  6 13  1  0  0  0  0
  6  8  1  0  0  0  0
  8  9  1  6  0  0  0
  8 10  1  0  0  0  0
  8 27  1  0  0  0  0
 10 11  1  0  0  0  0
 10 38  1  0  0  0  0
 11 12  1  1  0  0  0
 11 13  1  0  0  0  0
 11 14  1  0  0  0  0
 14 15  1  0  0  0  0
 14 39  1  0  0  0  0
 15 16  2  0  0  0  0
 15 17  1  0  0  0  0
 17 40  1  0  0  0  0
 17 41  1  0  0  0  0
 17 18  1  0  0  0  0
 18 19  1  0  0  0  0
 19 25  2  0  0  0  0
 19 20  1  0  0  0  0
 20 21  2  0  0  0  0
 21 22  1  0  0  0  0
 21 23  1  0  0  0  0
 23 42  1  0  0  0  0
 23 24  2  0  0  0  0
 24 25  1  0  0  0  0
 24 26  1  0  0  0  0
 26 43  1  0  0  0  0
 26 44  1  0  0  0  0
 26 45  1  0  0  0  0
 27 32  2  0  0  0  0
 27 28  1  0  0  0  0
 28 29  2  0  0  0  0
 28 46  1  0  0  0  0
 29 30  1  0  0  0  0
 29 47  1  0  0  0  0
 30 31  2  0  0  0  0
 30 48  1  0  0  0  0
 31 32  1  0  0  0  0
 31 49  1  0  0  0  0
 32 50  1  0  0  0  0
M  CHG  1  22  -1
M  END
$$$$
ZINC39646922
 OpenBabel01252620473D

 50 53  0  0  1  0  0  0  0  0999 V2000
   -0.1494    1.4993    0.0592 C   0  0  0  0  0  0  0  0  0  0  0  0
   -0.1004   -0.0067    0.0403 C   0  0  0  0  0  0  0  0  0  0  0  0
   -0.1120   -0.6810   -1.1678 C   0  0  0  0  0  0  0  0  0  0  0  0
   -0.0677   -2.0597   -1.1922 C   0  0  0  0  0  0  0  0  0  0  0  0
   -0.0106   -2.7743    0.0054 C   0  0  0  0  0  0  0  0  0  0  0  0
    0.0013   -2.0879    1.2206 C   0  0  0  0  0  0  0  0  0  0  0  0
   -0.0381   -0.7089    1.2308 C   0  0  0  0  0  0  0  0  0  0  0  0
    0.0365   -4.2518   -0.0133 C   0  0  0  0  0  0  0  0  0  0  0  0
   -0.3052   -5.0307   -1.0130 N   0  0  0  0  0  0  0  0  0  0  0  0
   -0.1384   -6.2624   -0.6864 N   0  0  0  0  0  0  0  0  0  0  0  0
    0.3204   -6.3452    0.5426 C   0  0  0  0  0  0  0  0  0  0  0  0
    0.4526   -5.0696    1.0119 N   0  0  0  0  0  0  0  0  0  0  0  0
    0.9345   -4.6579    2.3327 C   0  0  0  0  0  0  0  0  0  0  0  0
   -0.2315   -4.6556    3.3232 C   0  0  0  0  0  0  0  0  0  0  0  0
    0.2642   -4.2321    4.6818 C   0  0  0  0  0  0  0  0  0  0  0  0
    1.4412   -3.9576    4.8430 O   0  0  0  0  0  0  0  0  0  0  0  0
   -0.5116   -4.1641    5.6199 O   0  0  0  0  0  1  0  0  0  0  0  0
    0.6998   -7.8260    1.4190 S   0  0  0  0  0  0  0  0  0  0  0  0
    0.3111   -9.1468    0.2379 C   0  0  0  0  0  0  0  0  0  0  0  0
    0.5947  -10.4852    0.8698 C   0  0  0  0  0  0  0  0  0  0  0  0
    1.0458  -10.5078    2.1008 N   0  0  0  0  0  0  0  0  0  0  0  0
    1.3271  -11.6435    2.7481 C   0  0  0  0  0  0  0  0  0  0  0  0
    1.7450  -11.6282    3.8935 O   0  0  0  0  0  0  0  0  0  0  0  0
    1.1117  -12.9350    2.0208 C   0  0  0  0  0  0  0  0  0  0  0  0
    1.3218  -14.1836    2.4636 C   0  0  0  0  0  0  0  0  0  0  0  0
    1.0203  -15.3249    1.5192 C   0  0  1  0  0  0  0  0  0  0  0  0
    0.2350  -15.9660    1.9198 H   0  0  0  0  0  0  0  0  0  0  0  0
    0.4386  -14.4274    0.0234 S   0  0  0  0  0  0  0  0  0  0  0  0
    0.6013  -12.7719    0.6428 C   0  0  0  0  0  0  0  0  0  0  0  0
    0.3702  -11.5764    0.1547 N   0  0  0  0  0  0  0  0  0  0  0  0
    2.2642  -16.1219    1.2215 C   0  0  0  0  0  0  0  0  0  0  0  0
    2.2266  -17.3404    1.2407 O   0  0  0  0  0  0  0  0  0  0  0  0
    3.3081  -15.5483    0.9614 O   0  0  0  0  0  1  0  0  0  0  0  0
    1.8411  -14.4399    3.8549 C   0  0  0  0  0  0  0  0  0  0  0  0
    0.8653    1.8963    0.0302 H   0  0  0  0  0  0  0  0  0  0  0  0
   -0.7040    1.8558   -0.8088 H   0  0  0  0  0  0  0  0  0  0  0  0
   -0.6450    1.8353    0.9701 H   0  0  0  0  0  0  0  0  0  0  0  0
   -0.1562   -0.1269   -2.0938 H   0  0  0  0  0  0  0  0  0  0  0  0
   -0.0776   -2.5849   -2.1359 H   0  0  0  0  0  0  0  0  0  0  0  0
    0.0450   -2.6350    2.1508 H   0  0  0  0  0  0  0  0  0  0  0  0
   -0.0246   -0.1764    2.1703 H   0  0  0  0  0  0  0  0  0  0  0  0
    1.6997   -5.3552    2.6739 H   0  0  0  0  0  0  0  0  0  0  0  0
    1.3587   -3.6559    2.2686 H   0  0  0  0  0  0  0  0  0  0  0  0
   -0.9967   -3.9583    2.9821 H   0  0  0  0  0  0  0  0  0  0  0  0
   -0.6557   -5.6577    3.3874 H   0  0  0  0  0  0  0  0  0  0  0  0
   -0.7422   -9.0905   -0.0366 H   0  0  0  0  0  0  0  0  0  0  0  0
    0.9259   -9.0288   -0.6545 H   0  0  0  0  0  0  0  0  0  0  0  0
    1.9918  -13.4897    4.3672 H   0  0  0  0  0  0  0  0  0  0  0  0
    1.1185  -15.0402    4.4076 H   0  0  0  0  0  0  0  0  0  0  0  0
    2.7888  -14.9752    3.7960 H   0  0  0  0  0  0  0  0  0  0  0  0
  1  2  1  0  0  0  0
  1 35  1  0  0  0  0
  1 36  1  0  0  0  0
  1 37  1  0  0  0  0
  2  7  2  0  0  0  0
  2  3  1  0  0  0  0
  3  4  2  0  0  0  0
  3 38  1  0  0  0  0
  4  5  1  0  0  0  0
  4 39  1  0  0  0  0
  5  6  2  0  0  0  0
  5  8  1  0  0  0  0
  6  7  1  0  0  0  0
  6 40  1  0  0  0  0
  7 41  1  0  0  0  0
  8 12  1  0  0  0  0
  8  9  2  0  0  0  0
  9 10  1  0  0  0  0
 10 11  2  0  0  0  0
 11 12  1  0  0  0  0
 11 18  1  0  0  0  0
 12 13  1  0  0  0  0
 13 14  1  0  0  0  0
 13 42  1  0  0  0  0
 13 43  1  0  0  0  0
 14 15  1  0  0  0  0
 14 44  1  0  0  0  0
 14 45  1  0  0  0  0
 15 16  2  0  0  0  0
 15 17  1  0  0  0  0
 18 19  1  0  0  0  0
 19 20  1  0  0  0  0
 19 46  1  0  0  0  0
 19 47  1  0  0  0  0
 20 30  1  0  0  0  0
 20 21  2  0  0  0  0
 21 22  1  0  0  0  0
 22 23  2  0  0  0  0
 22 24  1  0  0  0  0
 24 29  1  0  0  0  0
 24 25  2  0  0  0  0
 25 26  1  0  0  0  0
 25 34  1  0  0  0  0
 26 27  1  1  0  0  0
 26 28  1  0  0  0  0
 26 31  1  0  0  0  0
 28 29  1  0  0  0  0
 29 30  2  0  0  0  0
 31 32  2  0  0  0  0
 31 33  1  0  0  0  0
 34 48  1  0  0  0  0
 34 49  1  0  0  0  0
 34 50  1  0  0  0  0
M  END
$$$$
ZINC02384119
 OpenBabel01252620473D

 13 13  0  0  0  0  0  0  0  0999 V2000
   -0.0157    4.0791    0.0246 C   0  0  0  0  0  0  0  0  0  0  0  0
    1.1508    3.3362    0.0090 C   0  0  0  0  0  0  0  0  0  0  0  0
    1.1201    2.0172    0.0022 N   0  0  0  0  0  0  0  0  0  0  0  0
   -0.0162    1.3468    0.0094 C   0  0  0  0  0  0  0  0  0  0  0  0
   -1.2405    2.0248    0.0190 C   0  0  0  0  0  0  0  0  0  0  0  0
   -1.2364    3.4263    0.0327 C   0  0  0  0  0  0  0  0  0  0  0  0
   -3.0318    4.5057    0.0563 I   0  0  0  0  0  0  0  0  0  0  0  0
   -2.5124    1.2778    0.0209 C   0  0  0  0  0  0  0  0  0  0  0  0
   -3.0312    0.9644    1.0739 O   0  0  0  0  0  0  0  0  0  0  0  0
    0.0021   -0.0041    0.0020 F   0  0  0  0  0  0  0  0  0  0  0  0
    0.0254    5.1583    0.0307 H   0  0  0  0  0  0  0  0  0  0  0  0
    2.1035    3.8448    0.0026 H   0  0  0  0  0  0  0  0  0  0  0  0
   -3.0988    0.9429   -1.1450 O   0  0  0  0  0  1  0  0  0  0  0  0
  1  6  2  0  0  0  0
  1  2  1  0  0  0  0
  1 11  1  0  0  0  0
  2  3  2  0  0  0  0
  2 12  1  0  0  0  0
  3  4  1  0  0  0  0
  4  5  2  0  0  0  0
  4 10  1  0  0  0  0
  5  6  1  0  0  0  0
  5  8  1  0  0  0  0
  6  7  1  0  0  0  0
  8  9  2  0  0  0  0
  8 13  1  0  0  0  0
M  END
$$$$
ZINC19809643
 OpenBabel01252620473D

 33 34  0  0  0  0  0  0  0  0999 V2000
   -0.0169    1.3917    0.0097 C   0  0  0  0  0  0  0  0  0  0  0  0
    1.1699    2.0947    0.0021 C   0  0  0  0  0  0  0  0  0  0  0  0
    2.3781    1.4188   -0.0130 C   0  0  0  0  0  0  0  0  0  0  0  0
    2.4035    0.0346   -0.0212 C   0  0  0  0  0  0  0  0  0  0  0  0
    1.2234   -0.6797   -0.0137 C   0  0  0  0  0  0  0  0  0  0  0  0
    0.0021   -0.0041    0.0020 C   0  0  0  0  0  0  0  0  0  0  0  0
   -1.2661   -0.7635    0.0105 C   0  0  0  0  0  0  0  0  0  0  0  0
   -2.5219   -0.2325   -0.0764 C   0  0  0  0  0  0  0  0  0  0  0  0
   -3.4295   -1.3003   -0.0318 C   0  0  0  0  0  0  0  0  0  0  0  0
   -2.7124   -2.4439    0.0800 C   0  0  0  0  0  0  0  0  0  0  0  0
   -1.3900   -2.1244    0.1010 N   0  0  0  0  0  0  0  0  0  0  0  0
   -0.3310   -3.0360    0.2019 N   0  0  0  0  0  0  0  0  0  0  0  0
    0.1220   -3.3824    1.3755 C   0  0  0  0  0  0  0  0  0  0  0  0
   -0.5981   -2.7037    2.8333 S   0  0  0  0  0  1  0  0  0  0  0  0
    1.1663   -4.2813    1.4750 N   0  0  0  0  0  0  0  0  0  0  0  0
   -3.2830   -3.8364    0.1613 C   0  0  0  0  0  0  0  0  0  0  0  0
   -3.5374   -4.3666   -1.2512 C   0  0  0  0  0  0  0  0  0  0  0  0
   -4.1080   -5.7590   -1.1698 C   0  0  0  0  0  0  0  0  0  0  0  0
   -4.2939   -6.2791   -0.0829 O   0  0  0  0  0  0  0  0  0  0  0  0
   -4.3837   -6.3654   -2.1910 O   0  0  0  0  0  1  0  0  0  0  0  0
    4.0004    2.3903   -0.0233 Br  0  0  0  0  0  0  0  0  0  0  0  0
   -0.9587    1.9200    0.0260 H   0  0  0  0  0  0  0  0  0  0  0  0
    1.1566    3.1746    0.0077 H   0  0  0  0  0  0  0  0  0  0  0  0
    3.3491   -0.4870   -0.0337 H   0  0  0  0  0  0  0  0  0  0  0  0
    1.2445   -1.7595   -0.0204 H   0  0  0  0  0  0  0  0  0  0  0  0
   -2.7696    0.8152   -0.1627 H   0  0  0  0  0  0  0  0  0  0  0  0
   -4.5058   -1.2246   -0.0779 H   0  0  0  0  0  0  0  0  0  0  0  0
    1.5628   -4.6550    0.6724 H   0  0  0  0  0  0  0  0  0  0  0  0
    1.5031   -4.5389    2.3475 H   0  0  0  0  0  0  0  0  0  0  0  0
   -2.5758   -4.4895    0.6726 H   0  0  0  0  0  0  0  0  0  0  0  0
   -4.2215   -3.8126    0.7150 H   0  0  0  0  0  0  0  0  0  0  0  0
   -4.2445   -3.7134   -1.7625 H   0  0  0  0  0  0  0  0  0  0  0  0
   -2.5988   -4.3903   -1.8049 H   0  0  0  0  0  0  0  0  0  0  0  0
  1  6  2  0  0  0  0
  1  2  1  0  0  0  0
  1 22  1  0  0  0  0
  2  3  2  0  0  0  0
  2 23  1  0  0  0  0
  3  4  1  0  0  0  0
  3 21  1  0  0  0  0
  4  5  2  0  0  0  0
  4 24  1  0  0  0  0
  5  6  1  0  0  0  0
  5 25  1  0  0  0  0
  6  7  1  0  0  0  0
  7 11  1  0  0  0  0
  7  8  2  0  0  0  0
  8  9  1  0  0  0  0
  8 26  1  0  0  0  0
  9 10  2  0  0  0  0
  9 27  1  0  0  0  0
 10 11  1  0  0  0  0
 10 16  1  0  0  0  0
 11 12  1  0  0  0  0
 12 13  2  0  0  0  0
 13 14  1  0  0  0  0
 13 15  1  0  0  0  0
 15 28  1  0  0  0  0
 15 29  1  0  0  0  0
 16 17  1  0  0  0  0
 16 30  1  0  0  0  0
 16 31  1  0  0  0  0
 17 18  1  0  0  0  0
 17 32  1  0  0  0  0
 17 33  1  0  0  0  0
 18 19  2  0  0  0  0
 18 20  1  0  0  0  0
M  END
$$$$
ZINC51394224
 OpenBabel01252620473D

 28 28  0  0  1  0  0  0  0  0999 V2000
   -0.0173    1.4248    0.0099 C   0  0  0  0  0  0  0  0  0  0  0  0
    0.0021   -0.0041    0.0020 O   0  0  0  0  0  0  0  0  0  0  0  0
    0.5984   -0.5997   -1.0427 C   0  0  0  0  0  0  0  0  0  0  0  0
    1.0877    0.0699   -1.9214 O   0  0  0  0  0  0  0  0  0  0  0  0
    0.6575   -2.1036   -1.1196 C   0  0  0  0  0  0  0  0  0  0  0  0
    1.5198   -2.5979   -2.6371 S   0  0  0  0  0  0  0  0  0  0  0  0
    1.5059   -4.4109   -2.5790 C   0  0  0  0  0  0  0  0  0  0  0  0
    2.2114   -4.9663   -3.8178 C   0  0  1  0  0  0  0  0  0  0  0  0
    3.2404   -4.6090   -3.8585 H   0  0  0  0  0  0  0  0  0  0  0  0
    2.1801   -6.5154   -3.8054 C   0  0  0  0  0  0  0  0  0  0  0  0
    2.3153   -6.8252   -5.3212 C   0  0  0  0  0  0  0  0  0  0  0  0
    1.5478   -5.6507   -5.9653 C   0  0  1  0  0  0  0  0  0  0  0  0
    0.5349   -5.9648   -6.2175 H   0  0  0  0  0  0  0  0  0  0  0  0
    1.5036   -4.5843   -5.0080 O   0  0  0  0  0  0  0  0  0  0  0  0
    2.2651   -5.1919   -7.2087 C   0  0  0  0  0  0  0  0  0  0  0  0
    2.3583   -5.9375   -8.1689 O   0  0  0  0  0  0  0  0  0  0  0  0
    2.7521   -4.0751   -7.2545 O   0  0  0  0  0  1  0  0  0  0  0  0
    1.0053    1.8021    0.0021 H   0  0  0  0  0  0  0  0  0  0  0  0
   -0.5445    1.7859   -0.8732 H   0  0  0  0  0  0  0  0  0  0  0  0
   -0.5275    1.7763    0.9067 H   0  0  0  0  0  0  0  0  0  0  0  0
    1.1948   -2.4908   -0.2539 H   0  0  0  0  0  0  0  0  0  0  0  0
   -0.3550   -2.5070   -1.1292 H   0  0  0  0  0  0  0  0  0  0  0  0
    2.0253   -4.7497   -1.6826 H   0  0  0  0  0  0  0  0  0  0  0  0
    0.4756   -4.7659   -2.5579 H   0  0  0  0  0  0  0  0  0  0  0  0
    3.0225   -6.9209   -3.2449 H   0  0  0  0  0  0  0  0  0  0  0  0
    1.2337   -6.8860   -3.4115 H   0  0  0  0  0  0  0  0  0  0  0  0
    3.3616   -6.8189   -5.6266 H   0  0  0  0  0  0  0  0  0  0  0  0
    1.8443   -7.7772   -5.5661 H   0  0  0  0  0  0  0  0  0  0  0  0
  1  2  1  0  0  0  0
  1 18  1  0  0  0  0
  1 19  1  0  0  0  0
  1 20  1  0  0  0  0
  2  3  1  0  0  0  0
  3  4  2  0  0  0  0
  3  5  1  0  0  0  0
  5  6  1  0  0  0  0
  5 21  1  0  0  0  0
  5 22  1  0  0  0  0
  6  7  1  0  0  0  0
  7  8  1  0  0  0  0
  7 23  1  0  0  0  0
  7 24  1  0  0  0  0
  8  9  1  6  0  0  0
  8 14  1  0  0  0  0
  8 10  1  0  0  0  0
 10 11  1  0  0  0  0
 10 25  1  0  0  0  0
 10 26  1  0  0  0  0
 11 12  1  0  0  0  0
 11 27  1  0  0  0  0
 11 28  1  0  0  0  0
 12 13  1  6  0  0  0
 12 14  1  0  0  0  0
 12 15  1  0  0  0  0
 15 16  2  0  0  0  0
 15 17  1  0  0  0  0
M  END
$$$$
ZINC49101853
 OpenBabel01252620473D

 42 43  0  0  0  0  0  0  0  0999 V2000
   -0.0173    1.4248    0.0099 C   0  0  0  0  0  0  0  0  0  0  0  0
    0.0021   -0.0041    0.0020 O   0  0  0  0  0  0  0  0  0  0  0  0
    0.6518   -0.5703   -1.1379 C   0  0  0  0  0  0  0  0  0  0  0  0
    0.6131   -2.0967   -1.0411 C   0  0  0  0  0  0  0  0  0  0  0  0
    1.3087   -2.7029   -2.2615 C   0  0  0  0  0  0  0  0  0  0  0  0
    1.2717   -4.1645   -2.1688 N   0  0  0  0  0  0  0  0  0  0  0  0
    1.8327   -4.9221   -3.1481 C   0  0  0  0  0  0  0  0  0  0  0  0
    2.4221   -4.3296   -4.2027 O   0  5  0  0  0  0  0  0  0  0  0  0
    1.7973   -6.3171   -3.0597 C   0  0  0  0  0  0  0  0  0  0  0  0
    1.1701   -6.9477   -1.9374 C   0  0  0  0  0  0  0  0  0  0  0  0
    0.6724   -7.4479   -1.0471 N   0  0  0  0  0  0  0  0  0  0  0  0
    2.3788   -7.1023   -4.0747 C   0  0  0  0  0  0  0  0  0  0  0  0
    2.9111   -6.5673   -5.0269 O   0  0  0  0  0  0  0  0  0  0  0  0
    2.3407   -8.6058   -3.9793 C   0  0  0  0  0  0  0  0  0  0  0  0
    3.0363   -9.2120   -5.1998 C   0  0  0  0  0  0  0  0  0  0  0  0
    2.9982  -10.7155   -5.1044 C   0  0  0  0  0  0  0  0  0  0  0  0
    2.0612  -11.4839   -5.5806 N   0  0  0  0  0  0  0  0  0  0  0  0
    2.3448  -12.7740   -5.3178 C   0  0  0  0  0  0  0  0  0  0  0  0
    3.4817  -12.8269   -4.6632 N   0  0  0  0  0  0  0  0  0  0  0  0
    3.9255  -11.4858   -4.5206 O   0  0  0  0  0  0  0  0  0  0  0  0
    1.5158  -13.9349   -5.7017 C   0  0  0  0  0  0  0  0  0  0  0  0
    1.7338  -15.2667   -5.4667 C   0  0  0  0  0  0  0  0  0  0  0  0
    0.8108  -16.1794   -5.9243 C   0  0  0  0  0  0  0  0  0  0  0  0
   -0.2851  -15.7343   -6.5930 C   0  0  0  0  0  0  0  0  0  0  0  0
   -0.0350  -13.9667   -6.5858 S   0  0  0  0  0  0  0  0  0  0  0  0
    1.0053    1.8021    0.0021 H   0  0  0  0  0  0  0  0  0  0  0  0
   -0.5445    1.7859   -0.8732 H   0  0  0  0  0  0  0  0  0  0  0  0
   -0.5275    1.7763    0.9067 H   0  0  0  0  0  0  0  0  0  0  0  0
    0.1385   -0.2506   -2.0447 H   0  0  0  0  0  0  0  0  0  0  0  0
    1.6883   -0.2344   -1.1694 H   0  0  0  0  0  0  0  0  0  0  0  0
    1.1264   -2.4164   -0.1342 H   0  0  0  0  0  0  0  0  0  0  0  0
   -0.4234   -2.4326   -1.0095 H   0  0  0  0  0  0  0  0  0  0  0  0
    0.7954   -2.3833   -3.1684 H   0  0  0  0  0  0  0  0  0  0  0  0
    2.3452   -2.3671   -2.2930 H   0  0  0  0  0  0  0  0  0  0  0  0
    0.8468   -4.5917   -1.4086 H   0  0  0  0  0  0  0  0  0  0  0  0
    2.8540   -8.9255   -3.0724 H   0  0  0  0  0  0  0  0  0  0  0  0
    1.3042   -8.9417   -3.9478 H   0  0  0  0  0  0  0  0  0  0  0  0
    2.5230   -8.8923   -6.1066 H   0  0  0  0  0  0  0  0  0  0  0  0
    4.0728   -8.8761   -5.2313 H   0  0  0  0  0  0  0  0  0  0  0  0
    2.6135  -15.5944   -4.9327 H   0  0  0  0  0  0  0  0  0  0  0  0
    0.9559  -17.2360   -5.7543 H   0  0  0  0  0  0  0  0  0  0  0  0
   -1.0996  -16.3031   -7.0165 H   0  0  0  0  0  0  0  0  0  0  0  0
  1  2  1  0  0  0  0
  1 26  1  0  0  0  0
  1 27  1  0  0  0  0
  1 28  1  0  0  0  0
  2  3  1  0  0  0  0
  3  4  1  0  0  0  0
  3 29  1  0  0  0  0
  3 30  1  0  0  0  0
  4  5  1  0  0  0  0
  4 31  1  0  0  0  0
  4 32  1  0  0  0  0
  5  6  1  0  0  0  0
  5 33  1  0  0  0  0
  5 34  1  0  0  0  0
  6  7  1  0  0  0  0
  6 35  1  0  0  0  0
  7  8  1  0  0  0  0
  7  9  2  0  0  0  0
  9 10  1  0  0  0  0
  9 12  1  0  0  0  0
 10 11  3  0  0  0  0
 12 13  2  0  0  0  0
 12 14  1  0  0  0  0
 14 15  1  0  0  0  0
 14 36  1  0  0  0  0
 14 37  1  0  0  0  0
 15 16  1  0  0  0  0
 15 38  1  0  0  0  0
 15 39  1  0  0  0  0
 16 20  1  0  0  0  0
 16 17  2  0  0  0  0
 17 18  1  0  0  0  0
 18 19  2  0  0  0  0
 18 21  1  0  0  0  0
 19 20  1  0  0  0  0
 21 25  1  0  0  0  0
 21 22  2  0  0  0  0
 22 23  1  0  0  0  0
 22 40  1  0  0  0  0
 23 24  2  0  0  0  0
 23 41  1  0  0  0  0
 24 25  1  0  0  0  0
 24 42  1  0  0  0  0
M  CHG  1   8  -1
M  END
$$$$
ZINC20258845
 OpenBabel01252620473D

 31 32  0  0  1  0  0  0  0  0999 V2000
    1.3365   -0.4229   -0.0130 C   0  0  0  0  0  0  0  0  0  0  0  0
    0.0021   -0.0041    0.0020 C   0  0  0  0  0  0  0  0  0  0  0  0
   -0.0157    1.3042    0.0092 N   0  0  0  0  0  0  0  0  0  0  0  0
    1.3089    1.7599   -0.0010 N   0  0  0  0  0  0  0  0  0  0  0  0
    2.1193    0.6809   -0.0145 C   0  0  0  0  0  0  0  0  0  0  0  0
    1.7386    3.1605    0.0024 C   0  0  0  0  0  0  0  0  0  0  0  0
    1.0952    3.8861   -1.1511 C   0  0  0  0  0  0  0  0  0  0  0  0
    0.3511    3.2918   -1.9021 O   0  0  0  0  0  0  0  0  0  0  0  0
    1.3468    5.1954   -1.3482 N   0  0  0  0  0  0  0  0  0  0  0  0
    2.2411    5.9303   -0.4433 C   0  0  0  0  0  0  0  0  0  0  0  0
    1.5140    7.1688    0.0774 C   0  0  0  0  0  0  0  0  0  0  0  0
    1.0019    7.9923   -1.1064 C   0  0  0  0  0  0  0  0  0  0  0  0
    0.0126    7.1564   -1.9217 C   0  0  2  0  0  0  0  0  0  0  0  0
   -0.8349    6.8547   -1.2886 H   0  0  0  0  0  0  0  0  0  0  0  0
    0.7271    5.9164   -2.4683 C   0  0  0  0  0  0  0  0  0  0  0  0
   -0.5157    7.9790   -3.0685 C   0  0  0  0  0  0  0  0  0  0  0  0
   -0.1420    9.1184   -3.2172 O   0  0  0  0  0  0  0  0  0  0  0  0
   -1.4014    7.4460   -3.9248 O   0  0  0  0  0  1  0  0  0  0  0  0
    1.6812   -1.4463   -0.0214 H   0  0  0  0  0  0  0  0  0  0  0  0
   -0.8641   -0.6492    0.0063 H   0  0  0  0  0  0  0  0  0  0  0  0
    3.1991    0.6957   -0.0254 H   0  0  0  0  0  0  0  0  0  0  0  0
    1.4366    3.6344    0.9480 H   0  0  0  0  0  0  0  0  0  0  0  0
    2.8329    3.2086   -0.0987 H   0  0  0  0  0  0  0  0  0  0  0  0
    2.5217    5.2828    0.4005 H   0  0  0  0  0  0  0  0  0  0  0  0
    3.1465    6.2340   -0.9893 H   0  0  0  0  0  0  0  0  0  0  0  0
    0.6648    6.8590    0.7042 H   0  0  0  0  0  0  0  0  0  0  0  0
    2.2083    7.7773    0.6754 H   0  0  0  0  0  0  0  0  0  0  0  0
    0.4974    8.8959   -0.7335 H   0  0  0  0  0  0  0  0  0  0  0  0
    1.8492    8.2826   -1.7450 H   0  0  0  0  0  0  0  0  0  0  0  0
    1.5051    6.2196   -3.1844 H   0  0  0  0  0  0  0  0  0  0  0  0
    0.0020    5.2595   -2.9710 H   0  0  0  0  0  0  0  0  0  0  0  0
  1  5  2  0  0  0  0
  1  2  1  0  0  0  0
  1 19  1  0  0  0  0
  2  3  2  0  0  0  0
  2 20  1  0  0  0  0
  3  4  1  0  0  0  0
  4  5  1  0  0  0  0
  4  6  1  0  0  0  0
  5 21  1  0  0  0  0
  6  7  1  0  0  0  0
  6 22  1  0  0  0  0
  6 23  1  0  0  0  0
  7  8  2  0  0  0  0
  7  9  1  0  0  0  0
  9 15  1  0  0  0  0
  9 10  1  0  0  0  0
 10 11  1  0  0  0  0
 10 24  1  0  0  0  0
 10 25  1  0  0  0  0
 11 12  1  0  0  0  0
 11 26  1  0  0  0  0
 11 27  1  0  0  0  0
 12 13  1  0  0  0  0
 12 28  1  0  0  0  0
 12 29  1  0  0  0  0
 13 14  1  1  0  0  0
 13 15  1  0  0  0  0
 13 16  1  0  0  0  0
 15 30  1  0  0  0  0
 15 31  1  0  0  0  0
 16 17  2  0  0  0  0
 16 18  1  0  0  0  0
M  END
$$$$
ZINC04624195
 OpenBabel01252620473D

 44 48  0  0  0  0  0  0  0  0999 V2000
   -3.0036    3.7365    1.6879 C   0  0  0  0  0  0  0  0  0  0  0  0
   -2.5976    5.0606    2.1656 N   0  0  0  0  0  0  0  0  0  0  0  0
   -1.7712    5.9486    1.5343 C   0  0  0  0  0  0  0  0  0  0  0  0
   -1.6776    7.0010    2.2968 N   0  0  0  0  0  0  0  0  0  0  0  0
   -2.3793    6.8384    3.3612 N   0  0  0  0  0  0  0  0  0  0  0  0
   -2.9636    5.6631    3.3350 C   0  0  0  0  0  0  0  0  0  0  0  0
   -4.0245    4.9926    4.5718 S   0  0  0  0  0  0  0  0  0  0  0  0
   -4.0214    6.3565    5.7616 C   0  0  0  0  0  0  0  0  0  0  0  0
   -4.8896    5.9973    6.9398 C   0  0  0  0  0  0  0  0  0  0  0  0
   -6.5659    5.7777    8.2207 N   0  0  0  0  0  0  0  0  0  0  0  0
   -5.5381    5.2628    8.8002 N   0  0  0  0  0  0  0  0  0  0  0  0
   -4.5086    5.3873    8.0356 N   0  0  0  0  0  0  0  0  0  0  0  0
   -1.0984    5.7495    0.2005 C   0  0  0  0  0  0  0  0  0  0  0  0
    0.2751    5.2853    0.4109 N   0  0  0  0  0  0  0  0  0  0  0  0
    0.5314    3.9320    0.3653 C   0  0  0  0  0  0  0  0  0  0  0  0
   -0.5056    3.0332    0.1223 C   0  0  0  0  0  0  0  0  0  0  0  0
   -0.2469    1.6813    0.0704 C   0  0  0  0  0  0  0  0  0  0  0  0
    1.0384    1.1979    0.2703 C   0  0  0  0  0  0  0  0  0  0  0  0
    2.0748    2.0638    0.5114 C   0  0  0  0  0  0  0  0  0  0  0  0
    1.8321    3.4379    0.5613 C   0  0  0  0  0  0  0  0  0  0  0  0
    2.9297    4.3880    0.8184 C   0  0  0  0  0  0  0  0  0  0  0  0
    4.0712    4.0021    0.9933 O   0  0  0  0  0  0  0  0  0  0  0  0
    2.5930    5.8228    0.8553 C   0  0  0  0  0  0  0  0  0  0  0  0
    1.2610    6.2186    0.6472 C   0  0  0  0  0  0  0  0  0  0  0  0
    0.9438    7.5753    0.6818 C   0  0  0  0  0  0  0  0  0  0  0  0
    1.9300    8.5070    0.9190 C   0  0  0  0  0  0  0  0  0  0  0  0
    3.2440    8.1111    1.1245 C   0  0  0  0  0  0  0  0  0  0  0  0
    3.5799    6.7813    1.0940 C   0  0  0  0  0  0  0  0  0  0  0  0
   -2.2580    2.9989    1.9847 H   0  0  0  0  0  0  0  0  0  0  0  0
   -3.9680    3.4734    2.1225 H   0  0  0  0  0  0  0  0  0  0  0  0
   -3.0868    3.7521    0.6012 H   0  0  0  0  0  0  0  0  0  0  0  0
   -3.0024    6.5384    6.1032 H   0  0  0  0  0  0  0  0  0  0  0  0
   -4.4105    7.2559    5.2843 H   0  0  0  0  0  0  0  0  0  0  0  0
   -1.0834    6.6939   -0.3435 H   0  0  0  0  0  0  0  0  0  0  0  0
   -1.6487    5.0064   -0.3766 H   0  0  0  0  0  0  0  0  0  0  0  0
   -1.5109    3.3969   -0.0308 H   0  0  0  0  0  0  0  0  0  0  0  0
   -1.0537    0.9899   -0.1230 H   0  0  0  0  0  0  0  0  0  0  0  0
    1.2246    0.1347    0.2314 H   0  0  0  0  0  0  0  0  0  0  0  0
    3.0745    1.6841    0.6625 H   0  0  0  0  0  0  0  0  0  0  0  0
   -0.0752    7.8959    0.5227 H   0  0  0  0  0  0  0  0  0  0  0  0
    1.6781    9.5569    0.9451 H   0  0  0  0  0  0  0  0  0  0  0  0
    4.0063    8.8536    1.3089 H   0  0  0  0  0  0  0  0  0  0  0  0
    4.6037    6.4770    1.2543 H   0  0  0  0  0  0  0  0  0  0  0  0
   -6.1969    6.2390    7.0833 N   0  0  0  0  0  2  0  0  0  0  0  0
  1  2  1  0  0  0  0
  1 29  1  0  0  0  0
  1 30  1  0  0  0  0
  1 31  1  0  0  0  0
  2  6  1  0  0  0  0
  2  3  1  0  0  0  0
  3  4  2  0  0  0  0
  3 13  1  0  0  0  0
  4  5  1  0  0  0  0
  5  6  2  0  0  0  0
  6  7  1  0  0  0  0
  7  8  1  0  0  0  0
  8  9  1  0  0  0  0
  8 32  1  0  0  0  0
  8 33  1  0  0  0  0
  9 12  2  0  0  0  0
  9 44  1  0  0  0  0
 10 11  2  0  0  0  0
 10 44  1  0  0  0  0
 11 12  1  0  0  0  0
 13 14  1  0  0  0  0
 13 34  1  0  0  0  0
 13 35  1  0  0  0  0
 14 24  1  0  0  0  0
 14 15  1  0  0  0  0
 15 20  2  0  0  0  0
 15 16  1  0  0  0  0
 16 17  2  0  0  0  0
 16 36  1  0  0  0  0
 17 18  1  0  0  0  0
 17 37  1  0  0  0  0
 18 19  2  0  0  0  0
 18 38  1  0  0  0  0
 19 20  1  0  0  0  0
 19 39  1  0  0  0  0
 20 21  1  0  0  0  0
 21 22  2  0  0  0  0
 21 23  1  0  0  0  0
 23 28  2  0  0  0  0
 23 24  1  0  0  0  0
 24 25  2  0  0  0  0
 25 26  1  0  0  0  0
 25 40  1  0  0  0  0
 26 27  2  0  0  0  0
 26 41  1  0  0  0  0
 27 28  1  0  0  0  0
 27 42  1  0  0  0  0
 28 43  1  0  0  0  0
M  END
$$$$
ZINC13448445
 OpenBabel01252620473D

 58 60  0  0  1  0  0  0  0  0999 V2000
    1.6250   -1.9351   -2.4930 C   0  0  0  0  0  0  0  0  0  0  0  0
    1.5426   -2.6888   -1.1906 C   0  0  0  0  0  0  0  0  0  0  0  0
    1.4417   -2.0054   -0.0132 C   0  0  0  0  0  0  0  0  0  0  0  0
    1.3721   -2.7298    1.1896 C   0  0  0  0  0  0  0  0  0  0  0  0
    1.2863   -2.1506    2.2601 O   0  0  0  0  0  0  0  0  0  0  0  0
    1.3971   -4.0788    1.1373 N   0  0  0  0  0  0  0  0  0  0  0  0
    1.3463   -4.5986    1.9546 H   0  0  0  0  0  0  0  0  0  0  0  0
    1.4990   -4.7067   -0.0669 C   0  0  0  0  0  0  0  0  0  0  0  0
    1.5689   -4.0191   -1.1905 N   0  0  0  0  0  0  0  0  0  0  0  0
    1.5386   -6.4673   -0.1250 S   0  0  0  0  0  0  0  0  0  0  0  0
    1.6768   -6.7197   -1.9119 C   0  0  1  0  0  0  0  0  0  0  0  0
    0.8596   -6.2037   -2.4160 H   0  0  0  0  0  0  0  0  0  0  0  0
    3.0134   -6.1612   -2.4041 C   0  0  0  0  0  0  0  0  0  0  0  0
    1.6049   -8.1936   -2.2181 C   0  0  0  0  0  0  0  0  0  0  0  0
    1.8366   -9.0058   -1.3476 O   0  0  0  0  0  0  0  0  0  0  0  0
    1.2832   -8.6092   -3.4592 N   0  0  0  0  0  0  0  0  0  0  0  0
    1.3107   -9.9733   -3.7693 C   0  0  0  0  0  0  0  0  0  0  0  0
    1.6984  -10.3914   -5.0356 C   0  0  0  0  0  0  0  0  0  0  0  0
    1.7300  -11.7389   -5.3367 C   0  0  0  0  0  0  0  0  0  0  0  0
    1.3657  -12.6709   -4.3823 C   0  0  0  0  0  0  0  0  0  0  0  0
    0.9733  -12.2575   -3.1224 C   0  0  0  0  0  0  0  0  0  0  0  0
    0.9450  -10.9118   -2.8132 C   0  0  0  0  0  0  0  0  0  0  0  0
    1.4009  -14.3888   -4.7726 S   0  0  0  0  0  0  0  0  0  0  0  0
    2.3250  -14.5436   -5.8409 O   0  0  0  0  0  0  0  0  0  0  0  0
    1.5381  -15.0825   -3.5400 O   0  0  0  0  0  0  0  0  0  0  0  0
   -0.0899  -14.7847   -5.3751 N   0  0  0  0  0  0  0  0  0  0  0  0
   -1.2368  -15.2541   -4.5840 C   0  0  0  0  0  0  0  0  0  0  0  0
   -2.3947  -15.5200   -5.5688 C   0  0  0  0  0  0  0  0  0  0  0  0
   -1.6586  -15.7344   -6.9177 C   0  0  0  0  0  0  0  0  0  0  0  0
   -0.4849  -14.7309   -6.7944 C   0  0  0  0  0  0  0  0  0  0  0  0
    1.4117   -0.4987   -0.0026 C   0  0  0  0  0  0  0  0  0  0  0  0
   -0.0405   -0.0177    0.0197 C   0  0  0  0  0  0  0  0  0  0  0  0
   -0.0705    1.4890    0.0304 C   0  0  0  0  0  0  0  0  0  0  0  0
    0.9635    2.1139    0.0211 O   0  0  0  0  0  0  0  0  0  0  0  0
    2.6695   -1.7336   -2.7307 H   0  0  0  0  0  0  0  0  0  0  0  0
    1.1805   -2.5339   -3.2880 H   0  0  0  0  0  0  0  0  0  0  0  0
    1.0846   -0.9929   -2.4023 H   0  0  0  0  0  0  0  0  0  0  0  0
    3.0966   -6.3132   -3.4802 H   0  0  0  0  0  0  0  0  0  0  0  0
    3.0654   -5.0952   -2.1827 H   0  0  0  0  0  0  0  0  0  0  0  0
    3.8306   -6.6773   -1.9000 H   0  0  0  0  0  0  0  0  0  0  0  0
    1.0327   -7.9626   -4.1374 H   0  0  0  0  0  0  0  0  0  0  0  0
    1.9788   -9.6638   -5.7828 H   0  0  0  0  0  0  0  0  0  0  0  0
    2.0360  -12.0649   -6.3198 H   0  0  0  0  0  0  0  0  0  0  0  0
    0.6889  -12.9878   -2.3793 H   0  0  0  0  0  0  0  0  0  0  0  0
    0.6391  -10.5896   -1.8288 H   0  0  0  0  0  0  0  0  0  0  0  0
   -0.9745  -16.1734   -4.0603 H   0  0  0  0  0  0  0  0  0  0  0  0
   -1.5311  -14.4877   -3.8670 H   0  0  0  0  0  0  0  0  0  0  0  0
   -3.0622  -14.6602   -5.6261 H   0  0  0  0  0  0  0  0  0  0  0  0
   -2.9459  -16.4161   -5.2836 H   0  0  0  0  0  0  0  0  0  0  0  0
   -2.3031  -15.4803   -7.7592 H   0  0  0  0  0  0  0  0  0  0  0  0
   -1.2909  -16.7569   -7.0040 H   0  0  0  0  0  0  0  0  0  0  0  0
   -0.8155  -13.7263   -7.0584 H   0  0  0  0  0  0  0  0  0  0  0  0
    0.3449  -15.0377   -7.4311 H   0  0  0  0  0  0  0  0  0  0  0  0
    1.9065   -0.1191   -0.8965 H   0  0  0  0  0  0  0  0  0  0  0  0
    1.9298   -0.1313    0.8832 H   0  0  0  0  0  0  0  0  0  0  0  0
   -0.5354   -0.3973    0.9137 H   0  0  0  0  0  0  0  0  0  0  0  0
   -0.5586   -0.3851   -0.8661 H   0  0  0  0  0  0  0  0  0  0  0  0
   -1.2461    2.1368    0.0446 O   0  0  0  0  0  1  0  0  0  0  0  0
  1  2  1  0  0  0  0
  1 35  1  0  0  0  0
  1 36  1  0  0  0  0
  1 37  1  0  0  0  0
  2  9  1  0  0  0  0
  2  3  2  0  0  0  0
  3  4  1  0  0  0  0
  3 31  1  0  0  0  0
  4  5  2  0  0  0  0
  4  6  1  0  0  0  0
  6  7  1  0  0  0  0
  6  8  1  0  0  0  0
  8  9  2  0  0  0  0
  8 10  1  0  0  0  0
 10 11  1  0  0  0  0
 11 12  1  6  0  0  0
 11 13  1  0  0  0  0
 11 14  1  0  0  0  0
 13 38  1  0  0  0  0
 13 39  1  0  0  0  0
 13 40  1  0  0  0  0
 14 15  2  0  0  0  0
 14 16  1  0  0  0  0
 16 17  1  0  0  0  0
 16 41  1  0  0  0  0
 17 22  2  0  0  0  0
 17 18  1  0  0  0  0
 18 19  2  0  0  0  0
 18 42  1  0  0  0  0
 19 20  1  0  0  0  0
 19 43  1  0  0  0  0
 20 21  2  0  0  0  0
 20 23  1  0  0  0  0
 21 22  1  0  0  0  0
 21 44  1  0  0  0  0
 22 45  1  0  0  0  0
 23 24  2  0  0  0  0
 23 25  2  0  0  0  0
 23 26  1  0  0  0  0
 26 30  1  0  0  0  0
 26 27  1  0  0  0  0
 27 28  1  0  0  0  0
 27 46  1  0  0  0  0
 27 47  1  0  0  0  0
 28 29  1  0  0  0  0
 28 48  1  0  0  0  0
 28 49  1  0  0  0  0
 29 30  1  0  0  0  0
 29 50  1  0  0  0  0
 29 51  1  0  0  0  0
 30 52  1  0  0  0  0
 30 53  1  0  0  0  0
 31 32  1  0  0  0  0
 31 54  1  0  0  0  0
 31 55  1  0  0  0  0
 32 33  1  0  0  0  0
 32 56  1  0  0  0  0
 32 57  1  0  0  0  0
 33 34  2  0  0  0  0
 33 58  1  0  0  0  0
M  END
$$$$
ZINC22048512
 OpenBabel01252620473D

 47 49  0  0  1  0  0  0  0  0999 V2000
   -7.3497   -7.1160    3.1643 C   0  0  0  0  0  0  0  0  0  0  0  0
   -7.1495   -6.6289    1.7523 C   0  0  0  0  0  0  0  0  0  0  0  0
   -7.5410   -7.2940    0.8226 O   0  0  0  0  0  0  0  0  0  0  0  0
   -6.5363   -5.4563    1.5275 O   0  0  0  0  0  0  0  0  0  0  0  0
   -6.3779   -5.0501    0.1425 C   0  0  0  0  0  0  0  0  0  0  0  0
   -5.6628   -3.6987    0.0859 C   0  0  2  0  0  0  0  0  0  0  0  0
   -6.2080   -2.9979    0.7353 H   0  0  0  0  0  0  0  0  0  0  0  0
   -5.5242   -3.2218   -1.3769 C   0  0  1  0  0  0  0  0  0  0  0  0
   -6.3506   -2.5856   -1.7265 H   0  0  0  0  0  0  0  0  0  0  0  0
   -4.1377   -2.5414   -1.4202 C   0  0  2  0  0  0  0  0  0  0  0  0
   -3.4639   -2.9355   -2.1953 H   0  0  0  0  0  0  0  0  0  0  0  0
   -3.6026   -2.6878    0.0216 C   0  0  1  0  0  0  0  0  0  0  0  0
   -3.7475   -1.8097    0.6680 H   0  0  0  0  0  0  0  0  0  0  0  0
   -4.3055   -3.8278    0.5621 O   0  0  0  0  0  0  0  0  0  0  0  0
   -2.1593   -2.9385    0.0069 N   0  0  0  0  0  0  0  0  0  0  0  0
   -1.5521   -4.1604   -0.0055 C   0  0  0  0  0  0  0  0  0  0  0  0
   -0.2595   -4.0136   -0.0170 N   0  0  0  0  0  0  0  0  0  0  0  0
    0.0447   -2.6926   -0.0128 C   0  0  0  0  0  0  0  0  0  0  0  0
   -1.1701   -1.9879    0.0025 C   0  0  0  0  0  0  0  0  0  0  0  0
   -1.1479   -0.6587    0.0093 N   0  0  0  0  0  0  0  0  0  0  0  0
    0.0020   -0.0041   -0.0091 C   0  0  0  0  0  0  0  0  0  0  0  0
    1.1723   -0.6287   -0.0238 N   0  0  0  0  0  0  0  0  0  0  0  0
    1.2424   -1.9560   -0.0263 C   0  0  0  0  0  0  0  0  0  0  0  0
    2.8025   -2.7748   -0.0465 S   0  0  0  0  0  1  0  0  0  0  0  0
   -0.0170    1.3810   -0.0131 N   0  0  0  0  0  0  0  0  0  0  0  0
   -4.2697   -1.1394   -1.7740 O   0  0  0  0  0  0  0  0  0  0  0  0
   -3.2144   -0.5582   -2.3659 C   0  0  0  0  0  0  0  0  0  0  0  0
   -2.2135   -1.1998   -2.5813 O   0  0  0  0  0  0  0  0  0  0  0  0
   -3.2780    0.8944   -2.7618 C   0  0  0  0  0  0  0  0  0  0  0  0
   -5.5679   -4.3523   -2.2870 O   0  0  0  0  0  0  0  0  0  0  0  0
   -6.7712   -4.6998   -2.7698 C   0  0  0  0  0  0  0  0  0  0  0  0
   -7.7554   -4.0799   -2.4428 O   0  0  0  0  0  0  0  0  0  0  0  0
   -6.8946   -5.8633   -3.7197 C   0  0  0  0  0  0  0  0  0  0  0  0
   -6.9309   -6.3818    3.8683 H   0  0  0  0  0  0  0  0  0  0  0  0
   -6.8394   -8.0817    3.2948 H   0  0  0  0  0  0  0  0  0  0  0  0
   -8.4250   -7.2400    3.3604 H   0  0  0  0  0  0  0  0  0  0  0  0
   -5.7822   -5.8029   -0.3945 H   0  0  0  0  0  0  0  0  0  0  0  0
   -7.3677   -4.9612   -0.3291 H   0  0  0  0  0  0  0  0  0  0  0  0
   -2.0682   -5.1091   -0.0057 H   0  0  0  0  0  0  0  0  0  0  0  0
   -0.9769    1.9180   -0.0011 H   0  0  0  0  0  0  0  0  0  0  0  0
    0.9279    1.9440   -0.0283 H   0  0  0  0  0  0  0  0  0  0  0  0
   -2.3267    1.1891   -3.2289 H   0  0  0  0  0  0  0  0  0  0  0  0
   -3.4540    1.5107   -1.8678 H   0  0  0  0  0  0  0  0  0  0  0  0
   -4.0997    1.0437   -3.4777 H   0  0  0  0  0  0  0  0  0  0  0  0
   -7.9491   -5.9941   -4.0041 H   0  0  0  0  0  0  0  0  0  0  0  0
   -6.5311   -6.7779   -3.2284 H   0  0  0  0  0  0  0  0  0  0  0  0
   -6.2936   -5.6670   -4.6199 H   0  0  0  0  0  0  0  0  0  0  0  0
  1  2  1  0  0  0  0
  1 34  1  0  0  0  0
  1 35  1  0  0  0  0
  1 36  1  0  0  0  0
  2  3  2  0  0  0  0
  2  4  1  0  0  0  0
  4  5  1  0  0  0  0
  5  6  1  0  0  0  0
  5 37  1  0  0  0  0
  5 38  1  0  0  0  0
  6  7  1  1  0  0  0
  6 14  1  0  0  0  0
  6  8  1  0  0  0  0
  8  9  1  6  0  0  0
  8 10  1  0  0  0  0
  8 30  1  0  0  0  0
 10 11  1  6  0  0  0
 10 12  1  0  0  0  0
 10 26  1  0  0  0  0
 12 13  1  1  0  0  0
 12 14  1  0  0  0  0
 12 15  1  0  0  0  0
 15 19  1  0  0  0  0
 15 16  1  0  0  0  0
 16 39  1  0  0  0  0
 16 17  2  0  0  0  0
 17 18  1  0  0  0  0
 18 19  2  0  0  0  0
 18 23  1  0  0  0  0
 19 20  1  0  0  0  0
 20 21  2  0  0  0  0
 21 22  1  0  0  0  0
 21 25  1  0  0  0  0
 22 23  2  0  0  0  0
 23 24  1  0  0  0  0
 25 41  1  0  0  0  0
 25 40  1  0  0  0  0
 26 27  1  0  0  0  0
 27 28  2  0  0  0  0
 27 29  1  0  0  0  0
 29 42  1  0  0  0  0
 29 43  1  0  0  0  0
 29 44  1  0  0  0  0
 30 31  1  0  0  0  0
 31 32  2  0  0  0  0
 31 33  1  0  0  0  0
 33 45  1  0  0  0  0
 33 46  1  0  0  0  0
 33 47  1  0  0  0  0
M  END
$$$$
ZINC40093263
 OpenBabel01252620473D

 60 62  0  0  1  0  0  0  0  0999 V2000
    1.5642    1.3257    0.3508 C   0  0  0  0  0  0  0  0  0  0  0  0
    1.3911   -0.1688    0.2625 C   0  0  0  0  0  0  0  0  0  0  0  0
    0.2301   -0.8153    0.0545 C   0  0  0  0  0  0  0  0  0  0  0  0
    0.5271   -2.1976    0.0443 C   0  0  0  0  0  0  0  0  0  0  0  0
    1.8519   -2.3130    0.2467 C   0  0  0  0  0  0  0  0  0  0  0  0
    2.3709   -1.0807    0.3724 O   0  0  0  0  0  0  0  0  0  0  0  0
    2.6236   -3.6056    0.3152 C   0  0  2  0  0  0  0  0  0  0  0  0
    1.9944   -4.4349   -0.0080 H   0  0  0  0  0  0  0  0  0  0  0  0
    3.1139   -3.8439    1.7243 C   0  0  0  0  0  0  0  0  0  0  0  0
    4.4651   -3.8884    1.6654 C   0  0  0  0  0  0  0  0  0  0  0  0
    4.8971   -3.6883    0.2662 C   0  0  0  0  0  0  0  0  0  0  0  0
    6.0516   -3.6761   -0.1122 O   0  0  0  0  0  0  0  0  0  0  0  0
    3.8221   -3.5230   -0.5280 N   0  0  0  0  0  0  0  0  0  0  0  0
    3.8439   -3.3000   -1.9757 C   0  0  0  0  0  0  0  0  0  0  0  0
    3.9084   -1.7979   -2.2594 C   0  0  0  0  0  0  0  0  0  0  0  0
    5.1479   -1.2749   -1.7775 O   0  0  0  0  0  0  0  0  0  0  0  0
    5.3101    0.1283   -1.9939 C   0  0  0  0  0  0  0  0  0  0  0  0
    6.6647    0.5763   -1.4415 C   0  0  0  0  0  0  0  0  0  0  0  0
    7.7127   -0.0450   -2.1882 O   0  0  0  0  0  0  0  0  0  0  0  0
    5.2898   -4.0846    2.7200 O   0  5  0  0  0  0  0  0  0  0  0  0
    2.2853   -3.9974    2.9244 C   0  0  0  0  0  0  0  0  0  0  0  0
    2.3293   -3.1590    3.8055 O   0  0  0  0  0  0  0  0  0  0  0  0
    1.3979   -5.1687    3.0637 C   0  0  0  0  0  0  0  0  0  0  0  0
    1.4295   -6.1898    2.1087 C   0  0  0  0  0  0  0  0  0  0  0  0
    0.6003   -7.2802    2.2423 C   0  0  0  0  0  0  0  0  0  0  0  0
   -0.2681   -7.3674    3.3251 C   0  0  0  0  0  0  0  0  0  0  0  0
   -0.3031   -6.3542    4.2765 C   0  0  0  0  0  0  0  0  0  0  0  0
    0.5275   -5.2629    4.1537 C   0  0  0  0  0  0  0  0  0  0  0  0
   -1.2468   -6.4535    5.4472 C   0  0  0  0  0  0  0  0  0  0  0  0
   -1.0840   -8.4441    3.4531 O   0  0  0  0  0  0  0  0  0  0  0  0
   -1.0848   -9.3886    2.3808 C   0  0  0  0  0  0  0  0  0  0  0  0
    0.0443  -10.3995    2.5907 C   0  0  0  0  0  0  0  0  0  0  0  0
   -2.4269  -10.1224    2.3485 C   0  0  0  0  0  0  0  0  0  0  0  0
    2.6151    1.5604    0.5196 H   0  0  0  0  0  0  0  0  0  0  0  0
    1.2343    1.7853   -0.5809 H   0  0  0  0  0  0  0  0  0  0  0  0
    0.9682    1.7122    1.1776 H   0  0  0  0  0  0  0  0  0  0  0  0
   -0.7425   -0.3650   -0.0785 H   0  0  0  0  0  0  0  0  0  0  0  0
   -0.1751   -3.0057   -0.0982 H   0  0  0  0  0  0  0  0  0  0  0  0
    4.7183   -3.7888   -2.4054 H   0  0  0  0  0  0  0  0  0  0  0  0
    2.9399   -3.7154   -2.4210 H   0  0  0  0  0  0  0  0  0  0  0  0
    3.8352   -1.6275   -3.3335 H   0  0  0  0  0  0  0  0  0  0  0  0
    3.0821   -1.2971   -1.7549 H   0  0  0  0  0  0  0  0  0  0  0  0
    5.2660    0.3386   -3.0625 H   0  0  0  0  0  0  0  0  0  0  0  0
    4.5129    0.6691   -1.4840 H   0  0  0  0  0  0  0  0  0  0  0  0
    6.7512    1.6596   -1.5260 H   0  0  0  0  0  0  0  0  0  0  0  0
    6.7438    0.2861   -0.3938 H   0  0  0  0  0  0  0  0  0  0  0  0
    8.6017    0.1942   -1.8922 H   0  0  0  0  0  0  0  0  0  0  0  0
    2.1033   -6.1227    1.2674 H   0  0  0  0  0  0  0  0  0  0  0  0
    0.6238   -8.0691    1.5051 H   0  0  0  0  0  0  0  0  0  0  0  0
    0.5032   -4.4786    4.8957 H   0  0  0  0  0  0  0  0  0  0  0  0
   -0.7494   -6.9626    6.2727 H   0  0  0  0  0  0  0  0  0  0  0  0
   -1.5415   -5.4525    5.7623 H   0  0  0  0  0  0  0  0  0  0  0  0
   -2.1322   -7.0172    5.1533 H   0  0  0  0  0  0  0  0  0  0  0  0
   -0.9336   -8.8660    1.4362 H   0  0  0  0  0  0  0  0  0  0  0  0
   -0.1069  -10.9221    3.5353 H   0  0  0  0  0  0  0  0  0  0  0  0
    0.0437  -11.1200    1.7727 H   0  0  0  0  0  0  0  0  0  0  0  0
    1.0005   -9.8768    2.6137 H   0  0  0  0  0  0  0  0  0  0  0  0
   -3.2313   -9.4022    2.1989 H   0  0  0  0  0  0  0  0  0  0  0  0
   -2.4275  -10.8428    1.5305 H   0  0  0  0  0  0  0  0  0  0  0  0
   -2.5781  -10.6450    3.2930 H   0  0  0  0  0  0  0  0  0  0  0  0
  1  2  1  0  0  0  0
  1 34  1  0  0  0  0
  1 35  1  0  0  0  0
  1 36  1  0  0  0  0
  2  6  1  0  0  0  0
  2  3  2  0  0  0  0
  3  4  1  0  0  0  0
  3 37  1  0  0  0  0
  4  5  2  0  0  0  0
  4 38  1  0  0  0  0
  5  6  1  0  0  0  0
  5  7  1  0  0  0  0
  7  8  1  6  0  0  0
  7 13  1  0  0  0  0
  7  9  1  0  0  0  0
  9 10  2  0  0  0  0
  9 21  1  0  0  0  0
 10 11  1  0  0  0  0
 10 20  1  0  0  0  0
 11 12  2  0  0  0  0
 11 13  1  0  0  0  0
 13 14  1  0  0  0  0
 14 15  1  0  0  0  0
 14 39  1  0  0  0  0
 14 40  1  0  0  0  0
 15 16  1  0  0  0  0
 15 41  1  0  0  0  0
 15 42  1  0  0  0  0
 16 17  1  0  0  0  0
 17 18  1  0  0  0  0
 17 43  1  0  0  0  0
 17 44  1  0  0  0  0
 18 19  1  0  0  0  0
 18 45  1  0  0  0  0
 18 46  1  0  0  0  0
 19 47  1  0  0  0  0
 21 22  2  0  0  0  0
 21 23  1  0  0  0  0
 23 28  2  0  0  0  0
 23 24  1  0  0  0  0
 24 25  2  0  0  0  0
 24 48  1  0  0  0  0
 25 26  1  0  0  0  0
 25 49  1  0  0  0  0
 26 27  2  0  0  0  0
 26 30  1  0  0  0  0
 27 28  1  0  0  0  0
 27 29  1  0  0  0  0
 28 50  1  0  0  0  0
 29 51  1  0  0  0  0
 29 52  1  0  0  0  0
 29 53  1  0  0  0  0
 30 31  1  0  0  0  0
 31 32  1  0  0  0  0
 31 33  1  0  0  0  0
 31 54  1  0  0  0  0
 32 55  1  0  0  0  0
 32 56  1  0  0  0  0
 32 57  1  0  0  0  0
 33 58  1  0  0  0  0
 33 59  1  0  0  0  0
 33 60  1  0  0  0  0
M  CHG  1  20  -1
M  END
$$$$
ZINC06633935
 OpenBabel01252620473D

 51 54  0  0  1  0  0  0  0  0999 V2000
   -6.3356    0.5845   -1.7184 C   0  0  0  0  0  0  0  0  0  0  0  0
   -5.9664    0.6399   -0.2346 C   0  0  0  0  0  0  0  0  0  0  0  0
   -4.5097    0.5779   -0.0913 N   0  0  0  0  0  0  0  0  0  0  0  0
   -3.6818    1.6639    0.0345 C   0  0  0  0  0  0  0  0  0  0  0  0
   -2.3918    1.1535    0.1430 C   0  0  0  0  0  0  0  0  0  0  0  0
   -2.5408   -0.2404    0.0671 C   0  0  0  0  0  0  0  0  0  0  0  0
   -3.8148   -0.5014   -0.0647 N   0  0  0  0  0  0  0  0  0  0  0  0
   -1.2040    1.8732    0.2897 N   0  0  0  0  0  0  0  0  0  0  0  0
   -0.0280    1.2212    0.3812 C   0  0  0  0  0  0  0  0  0  0  0  0
   -0.0012    0.0095    0.3362 O   0  0  0  0  0  0  0  0  0  0  0  0
    1.2544    1.9980    0.5333 C   0  0  1  0  0  0  0  0  0  0  0  0
    1.3735    2.7078   -0.2853 H   0  0  0  0  0  0  0  0  0  0  0  0
    1.2993    2.7251    1.9107 C   0  0  1  0  0  0  0  0  0  0  0  0
    0.7860    3.6859    1.9489 H   0  0  0  0  0  0  0  0  0  0  0  0
    0.8360    1.6630    2.9524 C   0  0  0  0  0  0  0  0  0  0  0  0
    2.0522    0.7053    3.0302 C   0  0  0  0  0  0  0  0  0  0  0  0
    3.0569    1.3412    2.0231 C   0  0  1  0  0  0  0  0  0  0  0  0
    4.1043    1.0731    2.1611 H   0  0  0  0  0  0  0  0  0  0  0  0
    2.4707    1.0403    0.6110 C   0  0  2  0  0  0  0  0  0  0  0  0
    2.1492    0.0013    0.5398 H   0  0  0  0  0  0  0  0  0  0  0  0
    3.4753    1.3648   -0.4643 C   0  0  0  0  0  0  0  0  0  0  0  0
    3.2643    2.2716   -1.2345 O   0  0  0  0  0  0  0  0  0  0  0  0
    2.7418    2.7652    2.1657 O   0  0  0  0  0  0  0  0  0  0  0  0
   -4.0758    3.0760    0.0519 C   0  0  0  0  0  0  0  0  0  0  0  0
   -4.0692    3.7223   -0.9792 O   0  0  0  0  0  0  0  0  0  0  0  0
   -4.4454    3.6582    1.2099 N   0  0  0  0  0  0  0  0  0  0  0  0
   -4.5776    2.8702    2.4455 C   0  0  0  0  0  0  0  0  0  0  0  0
   -3.7846    3.5808    3.5541 C   0  0  0  0  0  0  0  0  0  0  0  0
   -4.1996    4.9470    3.6255 O   0  0  0  0  0  0  0  0  0  0  0  0
   -3.9390    5.7006    2.4389 C   0  0  0  0  0  0  0  0  0  0  0  0
   -4.7345    5.0996    1.2745 C   0  0  0  0  0  0  0  0  0  0  0  0
   -6.0446   -0.3822   -2.1293 H   0  0  0  0  0  0  0  0  0  0  0  0
   -7.4117    0.7177   -1.8302 H   0  0  0  0  0  0  0  0  0  0  0  0
   -5.8137    1.3784   -2.2526 H   0  0  0  0  0  0  0  0  0  0  0  0
   -6.4189   -0.2051    0.2842 H   0  0  0  0  0  0  0  0  0  0  0  0
   -6.3346    1.5707    0.1969 H   0  0  0  0  0  0  0  0  0  0  0  0
   -1.7442   -0.9682    0.1119 H   0  0  0  0  0  0  0  0  0  0  0  0
   -1.2253    2.8423    0.3256 H   0  0  0  0  0  0  0  0  0  0  0  0
    0.6479    2.1278    3.9203 H   0  0  0  0  0  0  0  0  0  0  0  0
   -0.0512    1.1372    2.5993 H   0  0  0  0  0  0  0  0  0  0  0  0
    1.7730   -0.2999    2.7144 H   0  0  0  0  0  0  0  0  0  0  0  0
    2.4702    0.6929    4.0368 H   0  0  0  0  0  0  0  0  0  0  0  0
   -5.6284    2.8030    2.7274 H   0  0  0  0  0  0  0  0  0  0  0  0
   -4.1746    1.8698    2.2878 H   0  0  0  0  0  0  0  0  0  0  0  0
   -2.7190    3.5352    3.3294 H   0  0  0  0  0  0  0  0  0  0  0  0
   -3.9765    3.0916    4.5091 H   0  0  0  0  0  0  0  0  0  0  0  0
   -2.8740    5.6627    2.2102 H   0  0  0  0  0  0  0  0  0  0  0  0
   -4.2428    6.7362    2.5913 H   0  0  0  0  0  0  0  0  0  0  0  0
   -4.4354    5.5762    0.3409 H   0  0  0  0  0  0  0  0  0  0  0  0
   -5.8009    5.2531    1.4398 H   0  0  0  0  0  0  0  0  0  0  0  0
    4.6046    0.6464   -0.5667 O   0  0  0  0  0  1  0  0  0  0  0  0
  1  2  1  0  0  0  0
  1 32  1  0  0  0  0
  1 33  1  0  0  0  0
  1 34  1  0  0  0  0
  2  3  1  0  0  0  0
  2 35  1  0  0  0  0
  2 36  1  0  0  0  0
  3  7  1  0  0  0  0
  3  4  1  0  0  0  0
  4  5  2  0  0  0  0
  4 24  1  0  0  0  0
  5  6  1  0  0  0  0
  5  8  1  0  0  0  0
  6  7  2  0  0  0  0
  6 37  1  0  0  0  0
  8  9  1  0  0  0  0
  8 38  1  0  0  0  0
  9 10  2  0  0  0  0
  9 11  1  0  0  0  0
 11 12  1  6  0  0  0
 11 19  1  0  0  0  0
 11 13  1  0  0  0  0
 13 14  1  1  0  0  0
 13 23  1  0  0  0  0
 13 15  1  0  0  0  0
 15 16  1  0  0  0  0
 15 39  1  0  0  0  0
 15 40  1  0  0  0  0
 16 17  1  0  0  0  0
 16 41  1  0  0  0  0
 16 42  1  0  0  0  0
 17 18  1  1  0  0  0
 17 19  1  0  0  0  0
 17 23  1  0  0  0  0
 19 20  1  6  0  0  0
 19 21  1  0  0  0  0
 21 22  2  0  0  0  0
 21 51  1  0  0  0  0
 24 25  2  0  0  0  0
 24 26  1  0  0  0  0
 26 31  1  0  0  0  0
 26 27  1  0  0  0  0
 27 28  1  0  0  0  0
 27 43  1  0  0  0  0
 27 44  1  0  0  0  0
 28 29  1  0  0  0  0
 28 45  1  0  0  0  0
 28 46  1  0  0  0  0
 29 30  1  0  0  0  0
 30 31  1  0  0  0  0
 30 47  1  0  0  0  0
 30 48  1  0  0  0  0
 31 49  1  0  0  0  0
 31 50  1  0  0  0  0
M  END
$$$$
ZINC01059560
 OpenBabel01252620473D

 23 24  0  0  0  0  0  0  0  0999 V2000
   -0.0188    1.4403   -0.0238 C   0  0  0  0  0  0  0  0  0  0  0  0
    1.1868    2.0430   -0.0362 C   0  0  0  0  0  0  0  0  0  0  0  0
    2.3243    0.6745   -0.0227 S   0  0  0  0  0  0  0  0  0  0  0  0
    1.2423   -0.6076   -0.0021 C   0  0  0  0  0  0  0  0  0  0  0  0
    0.0016   -0.0035   -0.0052 C   0  0  0  0  0  0  0  0  0  0  0  0
   -1.2359   -0.7895    0.0101 C   0  0  0  0  0  0  0  0  0  0  0  0
   -1.1827   -2.1435   -0.1003 C   0  0  0  0  0  0  0  0  0  0  0  0
   -2.2792   -3.1193   -0.2208 C   0  0  0  0  0  0  0  0  0  0  0  0
   -3.4459   -2.7707   -0.2343 O   0  0  0  0  0  0  0  0  0  0  0  0
   -1.9347   -4.3926   -0.3140 N   0  0  0  0  0  0  0  0  0  0  0  0
   -0.6412   -4.7747   -0.2991 C   0  0  0  0  0  0  0  0  0  0  0  0
    0.0019   -6.3576   -0.4072 S   0  0  0  0  0  0  0  0  0  0  0  0
    0.2378   -3.2278   -0.1470 S   0  0  0  0  0  0  0  0  0  0  0  0
   -2.9810   -5.4107   -0.4357 C   0  0  0  0  0  0  0  0  0  0  0  0
   -3.2893   -5.6426   -1.8925 C   0  0  0  0  0  0  0  0  0  0  0  0
   -2.6905   -5.0155   -2.7496 O   0  0  0  0  0  0  0  0  0  0  0  0
   -4.1375   -6.4573   -2.2139 O   0  0  0  0  0  1  0  0  0  0  0  0
   -0.9415    2.0017   -0.0233 H   0  0  0  0  0  0  0  0  0  0  0  0
    1.4087    3.0998   -0.0507 H   0  0  0  0  0  0  0  0  0  0  0  0
    1.4657   -1.6642    0.0104 H   0  0  0  0  0  0  0  0  0  0  0  0
   -2.1899   -0.2929    0.1091 H   0  0  0  0  0  0  0  0  0  0  0  0
   -2.6366   -6.3413    0.0154 H   0  0  0  0  0  0  0  0  0  0  0  0
   -3.8809   -5.0700    0.0763 H   0  0  0  0  0  0  0  0  0  0  0  0
  1  5  1  0  0  0  0
  1  2  2  0  0  0  0
  1 18  1  0  0  0  0
  2  3  1  0  0  0  0
  2 19  1  0  0  0  0
  3  4  1  0  0  0  0
  4  5  2  0  0  0  0
  4 20  1  0  0  0  0
  5  6  1  0  0  0  0
  6  7  2  0  0  0  0
  6 21  1  0  0  0  0
  7 13  1  0  0  0  0
  7  8  1  0  0  0  0
  8  9  2  0  0  0  0
  8 10  1  0  0  0  0
 10 11  1  0  0  0  0
 10 14  1  0  0  0  0
 11 12  2  0  0  0  0
 11 13  1  0  0  0  0
 14 15  1  0  0  0  0
 14 22  1  0  0  0  0
 14 23  1  0  0  0  0
 15 16  2  0  0  0  0
 15 17  1  0  0  0  0
M  END
$$$$
ZINC13218446
 OpenBabel01252620473D

 56 58  0  0  1  0  0  0  0  0999 V2000
    0.4364    1.6107   -5.8777 C   0  0  0  0  0  0  0  0  0  0  0  0
    0.9450    0.9429   -4.5985 C   0  0  0  0  0  0  0  0  0  0  0  0
    0.2168    1.4460   -3.4766 O   0  0  0  0  0  0  0  0  0  0  0  0
    0.6162    0.8838   -2.2250 C   0  0  0  0  0  0  0  0  0  0  0  0
   -0.2255    1.4917   -1.1011 C   0  0  0  0  0  0  0  0  0  0  0  0
    0.2021    0.8898    0.2389 C   0  0  0  0  0  0  0  0  0  0  0  0
   -0.6038    1.4719    1.3150 N   0  0  0  0  0  0  0  0  0  0  0  0
   -1.7711    0.9703    1.8441 C   0  0  0  0  0  0  0  0  0  0  0  0
   -2.1574    1.8023    2.7834 N   0  0  0  0  0  0  0  0  0  0  0  0
   -1.3237    2.7759    2.8766 N   0  0  0  0  0  0  0  0  0  0  0  0
   -0.3501    2.6213    2.0055 C   0  0  0  0  0  0  0  0  0  0  0  0
    1.0232    3.7000    1.7708 S   0  0  0  0  0  0  0  0  0  0  0  0
    0.6562    4.9533    3.0241 C   0  0  0  0  0  0  0  0  0  0  0  0
    1.7297    6.0109    3.0063 C   0  0  0  0  0  0  0  0  0  0  0  0
    2.6520    5.9257    2.2233 O   0  0  0  0  0  0  0  0  0  0  0  0
    1.6647    7.0514    3.8604 N   0  0  0  0  0  0  0  0  0  0  0  0
    0.5505    7.1716    4.8105 C   0  0  0  0  0  0  0  0  0  0  0  0
   -0.0942    8.5472    4.6499 C   0  0  0  0  0  0  0  0  0  0  0  0
    0.9770    9.6304    4.7965 C   0  0  1  0  0  0  0  0  0  0  0  0
    2.0320    9.4586    3.7013 C   0  0  0  0  0  0  0  0  0  0  0  0
    2.7037    8.0904    3.8550 C   0  0  0  0  0  0  0  0  0  0  0  0
    0.3378   10.9891    4.6692 C   0  0  0  0  0  0  0  0  0  0  0  0
    0.6897   11.7426    3.7927 O   0  0  0  0  0  0  0  0  0  0  0  0
   -2.4601   -0.2704    1.4321 C   0  0  0  0  0  0  0  0  0  0  0  0
   -2.1918   -0.8652    0.1931 C   0  0  0  0  0  0  0  0  0  0  0  0
   -2.8540   -2.0254   -0.1486 C   0  0  0  0  0  0  0  0  0  0  0  0
   -3.7365   -2.5681    0.6689 N   0  0  0  0  0  0  0  0  0  0  0  0
   -4.0227   -2.0377    1.8430 C   0  0  0  0  0  0  0  0  0  0  0  0
   -3.4038   -0.8809    2.2674 C   0  0  0  0  0  0  0  0  0  0  0  0
   -0.6238    1.3918   -6.0049 H   0  0  0  0  0  0  0  0  0  0  0  0
    0.5788    2.6890   -5.8060 H   0  0  0  0  0  0  0  0  0  0  0  0
    0.9919    1.2269   -6.7334 H   0  0  0  0  0  0  0  0  0  0  0  0
    2.0052    1.1618   -4.4713 H   0  0  0  0  0  0  0  0  0  0  0  0
    0.8027   -0.1354   -4.6702 H   0  0  0  0  0  0  0  0  0  0  0  0
    1.6695    1.1014   -2.0485 H   0  0  0  0  0  0  0  0  0  0  0  0
    0.4670   -0.1957   -2.2474 H   0  0  0  0  0  0  0  0  0  0  0  0
   -1.2788    1.2741   -1.2776 H   0  0  0  0  0  0  0  0  0  0  0  0
   -0.0762    2.5713   -1.0787 H   0  0  0  0  0  0  0  0  0  0  0  0
    0.0529   -0.1897    0.2165 H   0  0  0  0  0  0  0  0  0  0  0  0
    1.2555    1.1074    0.4154 H   0  0  0  0  0  0  0  0  0  0  0  0
   -0.3089    5.4115    2.8081 H   0  0  0  0  0  0  0  0  0  0  0  0
    0.6240    4.4849    4.0078 H   0  0  0  0  0  0  0  0  0  0  0  0
   -0.1889    6.3971    4.6065 H   0  0  0  0  0  0  0  0  0  0  0  0
    0.9249    7.0633    5.8284 H   0  0  0  0  0  0  0  0  0  0  0  0
   -0.8575    8.6843    5.4158 H   0  0  0  0  0  0  0  0  0  0  0  0
   -0.5514    8.6190    3.6630 H   0  0  0  0  0  0  0  0  0  0  0  0
    1.4509    9.5424    5.7742 H   0  0  0  0  0  0  0  0  0  0  0  0
    2.7819   10.2443    3.7921 H   0  0  0  0  0  0  0  0  0  0  0  0
    1.5547    9.5217    2.7233 H   0  0  0  0  0  0  0  0  0  0  0  0
    3.2572    8.0584    4.7934 H   0  0  0  0  0  0  0  0  0  0  0  0
    3.3846    7.9218    3.0207 H   0  0  0  0  0  0  0  0  0  0  0  0
   -1.4744   -0.4239   -0.4830 H   0  0  0  0  0  0  0  0  0  0  0  0
   -2.6510   -2.4940   -1.1002 H   0  0  0  0  0  0  0  0  0  0  0  0
   -4.7520   -2.5161    2.4799 H   0  0  0  0  0  0  0  0  0  0  0  0
   -3.6429   -0.4525    3.2295 H   0  0  0  0  0  0  0  0  0  0  0  0
   -0.6226   11.3624    5.5295 O   0  0  0  0  0  1  0  0  0  0  0  0
  1  2  1  0  0  0  0
  1 30  1  0  0  0  0
  1 31  1  0  0  0  0
  1 32  1  0  0  0  0
  2  3  1  0  0  0  0
  2 33  1  0  0  0  0
  2 34  1  0  0  0  0
  3  4  1  0  0  0  0
  4  5  1  0  0  0  0
  4 35  1  0  0  0  0
  4 36  1  0  0  0  0
  5  6  1  0  0  0  0
  5 37  1  0  0  0  0
  5 38  1  0  0  0  0
  6  7  1  0  0  0  0
  6 39  1  0  0  0  0
  6 40  1  0  0  0  0
  7 11  1  0  0  0  0
  7  8  1  0  0  0  0
  8  9  2  0  0  0  0
  8 24  1  0  0  0  0
  9 10  1  0  0  0  0
 10 11  2  0  0  0  0
 11 12  1  0  0  0  0
 12 13  1  0  0  0  0
 13 14  1  0  0  0  0
 13 41  1  0  0  0  0
 13 42  1  0  0  0  0
 14 15  2  0  0  0  0
 14 16  1  0  0  0  0
 16 21  1  0  0  0  0
 16 17  1  0  0  0  0
 17 18  1  0  0  0  0
 17 43  1  0  0  0  0
 17 44  1  0  0  0  0
 18 19  1  0  0  0  0
 18 45  1  0  0  0  0
 18 46  1  0  0  0  0
 19 20  1  0  0  0  0
 19 22  1  0  0  0  0
 19 47  1  1  0  0  0
 20 21  1  0  0  0  0
 20 48  1  0  0  0  0
 20 49  1  0  0  0  0
 21 50  1  0  0  0  0
 21 51  1  0  0  0  0
 22 23  2  0  0  0  0
 22 56  1  0  0  0  0
 24 29  2  0  0  0  0
 24 25  1  0  0  0  0
 25 26  2  0  0  0  0
 25 52  1  0  0  0  0
 26 27  1  0  0  0  0
 26 53  1  0  0  0  0
 27 28  2  0  0  0  0
 28 29  1  0  0  0  0
 28 54  1  0  0  0  0
 29 55  1  0  0  0  0
M  END
$$$$
ZINC16887645
 OpenBabel01252620473D

 23 24  0  0  1  0  0  0  0  0999 V2000
    2.1321    2.5436    1.6490 C   0  0  0  0  0  0  0  0  0  0  0  0
    2.7472    1.1551    1.6083 C   0  0  0  0  0  0  0  0  0  0  0  0
    2.0884    0.5099    0.3987 C   0  0  1  0  0  0  0  0  0  0  0  0
    1.1582    1.5779   -0.1412 C   0  0  0  0  0  0  0  0  0  0  0  0
    0.2116    1.3996   -0.8707 O   0  0  0  0  0  0  0  0  0  0  0  0
    1.5803    2.7619    0.3419 O   0  0  0  0  0  0  0  0  0  0  0  0
    3.1406    0.1391   -0.6482 C   0  0  0  0  0  0  0  0  0  0  0  0
    4.0508   -0.9571   -0.0905 C   0  0  2  0  0  0  0  0  0  0  0  0
    5.1167   -1.3313   -1.1090 C   0  0  0  0  0  0  0  0  0  0  0  0
    4.8424   -2.7994   -1.3868 C   0  0  0  0  0  0  0  0  0  0  0  0
    3.5016   -3.0363   -0.9319 O   0  0  0  0  0  0  0  0  0  0  0  0
    3.2670   -2.2363    0.1256 C   0  0  0  0  0  0  0  0  0  0  0  0
    2.5621   -2.4917    1.0731 O   0  0  0  0  0  0  0  0  0  0  0  0
    5.9763   -0.6286   -1.5840 O   0  0  0  0  0  0  0  0  0  0  0  0
    3.5646    0.6774    2.3579 O   0  0  0  0  0  0  0  0  0  0  0  0
    1.3449    2.5847    2.4018 H   0  0  0  0  0  0  0  0  0  0  0  0
    2.8983    3.2886    1.8635 H   0  0  0  0  0  0  0  0  0  0  0  0
    2.6451   -0.2234   -1.5489 H   0  0  0  0  0  0  0  0  0  0  0  0
    3.7375    1.0183   -0.8907 H   0  0  0  0  0  0  0  0  0  0  0  0
    4.9186   -3.0011   -2.4553 H   0  0  0  0  0  0  0  0  0  0  0  0
    4.5109   -0.6306    0.8421 H   0  0  0  0  0  0  0  0  0  0  0  0
    5.5435   -3.4247   -0.8340 H   0  0  0  0  0  0  0  0  0  0  0  0
    1.5219   -0.3717    0.6990 H   0  0  0  0  0  0  0  0  0  0  0  0
  1  6  1  0  0  0  0
  1  2  1  0  0  0  0
  1 16  1  0  0  0  0
  1 17  1  0  0  0  0
  2  3  1  0  0  0  0
  2 15  2  0  0  0  0
  3  4  1  0  0  0  0
  3  7  1  0  0  0  0
  3 23  1  1  0  0  0
  4  5  2  0  0  0  0
  4  6  1  0  0  0  0
  7 18  1  0  0  0  0
  7 19  1  0  0  0  0
  7  8  1  0  0  0  0
  8 12  1  0  0  0  0
  8 21  1  1  0  0  0
  8  9  1  0  0  0  0
  9 10  1  0  0  0  0
  9 14  2  0  0  0  0
 10 11  1  0  0  0  0
 10 20  1  0  0  0  0
 10 22  1  0  0  0  0
 11 12  1  0  0  0  0
 12 13  2  0  0  0  0
M  END
$$$$
ZINC59291175
 OpenBabel01252620473D

 48 50  0  0  0  0  0  0  0  0999 V2000
    0.1806    1.0385    1.7893 C   0  0  0  0  0  0  0  0  0  0  0  0
    0.0747   -0.1844    0.8759 C   0  0  0  0  0  0  0  0  0  0  0  0
   -1.3360   -0.7136    0.9065 C   0  0  0  0  0  0  0  0  0  0  0  0
   -2.1742   -0.1665    1.5913 O   0  0  0  0  0  0  0  0  0  0  0  0
   -1.6662   -1.7948    0.1727 N   0  0  0  0  0  0  0  0  0  0  0  0
   -2.9447   -2.3421    0.2739 C   0  0  0  0  0  0  0  0  0  0  0  0
   -4.0439   -1.5090    0.4568 C   0  0  0  0  0  0  0  0  0  0  0  0
   -5.3074   -2.0460    0.5575 C   0  0  0  0  0  0  0  0  0  0  0  0
   -5.4854   -3.4298    0.4755 C   0  0  0  0  0  0  0  0  0  0  0  0
   -4.3791   -4.2638    0.2913 C   0  0  0  0  0  0  0  0  0  0  0  0
   -3.1189   -3.7197    0.1861 C   0  0  0  0  0  0  0  0  0  0  0  0
   -6.8383   -4.0091    0.5835 C   0  0  0  0  0  0  0  0  0  0  0  0
   -7.7998   -3.2823    0.7441 O   0  0  0  0  0  0  0  0  0  0  0  0
   -7.0082   -5.3438    0.5042 N   0  0  0  0  0  0  0  0  0  0  0  0
   -8.2975   -5.8855    0.4994 C   0  0  0  0  0  0  0  0  0  0  0  0
   -8.5376   -7.1160    1.0970 C   0  0  0  0  0  0  0  0  0  0  0  0
   -9.8120   -7.6482    1.0905 C   0  0  0  0  0  0  0  0  0  0  0  0
  -10.8484   -6.9573    0.4898 C   0  0  0  0  0  0  0  0  0  0  0  0
  -10.6127   -5.7319   -0.1061 C   0  0  0  0  0  0  0  0  0  0  0  0
   -9.3418   -5.1915   -0.0980 C   0  0  0  0  0  0  0  0  0  0  0  0
  -12.4727   -7.6401    0.4833 S   0  0  0  0  0  0  0  0  0  0  0  0
  -13.1550   -7.0545   -0.6171 O   0  0  0  0  0  0  0  0  0  0  0  0
  -12.3229   -9.0460    0.6259 O   0  0  0  0  0  0  0  0  0  0  0  0
  -13.2347   -7.1041    1.8523 N   0  0  0  0  0  2  0  0  0  0  0  0
  -14.5392   -7.4864    2.1130 C   0  0  0  0  0  0  0  0  0  0  0  0
  -15.1616   -8.2861    1.2595 N   0  0  0  0  0  0  0  0  0  0  0  0
  -16.4080   -8.6706    1.4791 C   0  0  0  0  0  0  0  0  0  0  0  0
  -17.0619   -8.2266    2.6178 C   0  0  0  0  0  0  0  0  0  0  0  0
  -16.3812   -7.3910    3.4894 C   0  0  0  0  0  0  0  0  0  0  0  0
  -15.1339   -7.0483    3.2130 N   0  0  0  0  0  0  0  0  0  0  0  0
    1.2009    1.4212    1.7672 H   0  0  0  0  0  0  0  0  0  0  0  0
   -0.5050    1.8116    1.4424 H   0  0  0  0  0  0  0  0  0  0  0  0
   -0.0787    0.7539    2.8090 H   0  0  0  0  0  0  0  0  0  0  0  0
    0.3340    0.1002   -0.1438 H   0  0  0  0  0  0  0  0  0  0  0  0
    0.7604   -0.9575    1.2229 H   0  0  0  0  0  0  0  0  0  0  0  0
   -1.0144   -2.1922   -0.4258 H   0  0  0  0  0  0  0  0  0  0  0  0
   -3.9056   -0.4397    0.5201 H   0  0  0  0  0  0  0  0  0  0  0  0
   -6.1602   -1.3988    0.7002 H   0  0  0  0  0  0  0  0  0  0  0  0
   -4.5131   -5.3336    0.2275 H   0  0  0  0  0  0  0  0  0  0  0  0
   -2.2640   -4.3632    0.0397 H   0  0  0  0  0  0  0  0  0  0  0  0
   -6.2362   -5.9286    0.4504 H   0  0  0  0  0  0  0  0  0  0  0  0
   -7.7285   -7.6563    1.5660 H   0  0  0  0  0  0  0  0  0  0  0  0
   -9.9993   -8.6052    1.5548 H   0  0  0  0  0  0  0  0  0  0  0  0
  -11.4243   -5.1949   -0.5744 H   0  0  0  0  0  0  0  0  0  0  0  0
   -9.1593   -4.2324   -0.5597 H   0  0  0  0  0  0  0  0  0  0  0  0
  -16.9103   -9.3222    0.7795 H   0  0  0  0  0  0  0  0  0  0  0  0
  -18.0797   -8.5249    2.8212 H   0  0  0  0  0  0  0  0  0  0  0  0
  -16.8622   -7.0272    4.3853 H   0  0  0  0  0  0  0  0  0  0  0  0
  1  2  1  0  0  0  0
  1 31  1  0  0  0  0
  1 32  1  0  0  0  0
  1 33  1  0  0  0  0
  2  3  1  0  0  0  0
  2 34  1  0  0  0  0
  2 35  1  0  0  0  0
  3  4  2  0  0  0  0
  3  5  1  0  0  0  0
  5  6  1  0  0  0  0
  5 36  1  0  0  0  0
  6 11  2  0  0  0  0
  6  7  1  0  0  0  0
  7  8  2  0  0  0  0
  7 37  1  0  0  0  0
  8  9  1  0  0  0  0
  8 38  1  0  0  0  0
  9 10  2  0  0  0  0
  9 12  1  0  0  0  0
 10 11  1  0  0  0  0
 10 39  1  0  0  0  0
 11 40  1  0  0  0  0
 12 13  2  0  0  0  0
 12 14  1  0  0  0  0
 14 15  1  0  0  0  0
 14 41  1  0  0  0  0
 15 20  2  0  0  0  0
 15 16  1  0  0  0  0
 16 17  2  0  0  0  0
 16 42  1  0  0  0  0
 17 18  1  0  0  0  0
 17 43  1  0  0  0  0
 18 19  2  0  0  0  0
 18 21  1  0  0  0  0
 19 20  1  0  0  0  0
 19 44  1  0  0  0  0
 20 45  1  0  0  0  0
 21 22  2  0  0  0  0
 21 23  2  0  0  0  0
 21 24  1  0  0  0  0
 24 25  1  0  0  0  0
 25 30  2  0  0  0  0
 25 26  1  0  0  0  0
 26 27  2  0  0  0  0
 27 28  1  0  0  0  0
 27 46  1  0  0  0  0
 28 29  2  0  0  0  0
 28 47  1  0  0  0  0
 29 30  1  0  0  0  0
 29 48  1  0  0  0  0
M  END
$$$$
ZINC39989937
 OpenBabel01252620473D

 52 54  0  0  0  0  0  0  0  0999 V2000
    1.1265    0.6927    0.9490 C   0  0  0  0  0  0  0  0  0  0  0  0
    0.6875   -0.7646    0.7920 C   0  0  0  0  0  0  0  0  0  0  0  0
   -0.8186   -0.8178    0.5280 C   0  0  0  0  0  0  0  0  0  0  0  0
   -1.2390   -2.2131    0.3777 N   0  0  0  0  0  0  0  0  0  0  0  0
   -1.3292   -2.7524   -0.8652 C   0  0  0  0  0  0  0  0  0  0  0  0
   -1.7303   -4.0877   -1.0363 C   0  0  0  0  0  0  0  0  0  0  0  0
   -2.0389   -4.8663    0.0919 C   0  0  0  0  0  0  0  0  0  0  0  0
   -1.9381   -4.2903    1.3551 C   0  0  0  0  0  0  0  0  0  0  0  0
   -1.5236   -2.9392    1.4738 C   0  0  0  0  0  0  0  0  0  0  0  0
   -1.4288   -2.4307    2.5771 O   0  0  0  0  0  0  0  0  0  0  0  0
   -2.2459   -5.0567    2.5249 C   0  0  0  0  0  0  0  0  0  0  0  0
   -2.4900   -5.6647    3.4529 N   0  0  0  0  0  0  0  0  0  0  0  0
   -2.4722   -6.3013   -0.0632 C   0  0  0  0  0  0  0  0  0  0  0  0
   -1.8266   -4.6631   -2.3791 C   0  0  0  0  0  0  0  0  0  0  0  0
   -0.9964   -5.6772   -2.7459 C   0  0  0  0  0  0  0  0  0  0  0  0
   -0.9463   -6.4130   -3.9689 C   0  0  0  0  0  0  0  0  0  0  0  0
   -1.7196   -6.1716   -4.8783 O   0  0  0  0  0  0  0  0  0  0  0  0
   -0.0352   -7.3635   -4.0842 N   0  0  0  0  0  0  0  0  0  0  0  0
    0.8227   -7.6310   -3.0748 C   0  0  0  0  0  0  0  0  0  0  0  0
    2.0676   -8.8043   -3.0074 S   0  0  0  0  0  0  0  0  0  0  0  0
    0.3333   -6.4456   -1.8312 S   0  0  0  0  0  0  0  0  0  0  0  0
    0.0456   -8.1389   -5.3245 C   0  0  0  0  0  0  0  0  0  0  0  0
    0.9920   -7.4598   -6.2807 C   0  0  0  0  0  0  0  0  0  0  0  0
    1.5474   -6.4241   -5.9562 O   0  0  0  0  0  0  0  0  0  0  0  0
    1.2022   -7.9461   -7.3788 O   0  0  0  0  0  1  0  0  0  0  0  0
   -1.0282   -1.9911   -1.9566 N   0  0  0  0  0  0  0  0  0  0  0  0
    0.3249   -1.9974   -2.5347 C   0  0  0  0  0  0  0  0  0  0  0  0
    0.2053   -2.2459   -4.0427 C   0  0  0  0  0  0  0  0  0  0  0  0
   -0.7197   -1.3103   -4.6019 O   0  0  0  0  0  0  0  0  0  0  0  0
   -2.0514   -1.4301   -4.0959 C   0  0  0  0  0  0  0  0  0  0  0  0
   -2.0488   -1.1441   -2.5941 C   0  0  0  0  0  0  0  0  0  0  0  0
    2.1995    0.7306    1.1370 H   0  0  0  0  0  0  0  0  0  0  0  0
    0.8982    1.2414    0.0352 H   0  0  0  0  0  0  0  0  0  0  0  0
    0.5947    1.1442    1.7864 H   0  0  0  0  0  0  0  0  0  0  0  0
    1.2193   -1.2161   -0.0455 H   0  0  0  0  0  0  0  0  0  0  0  0
    0.9158   -1.3133    1.7057 H   0  0  0  0  0  0  0  0  0  0  0  0
   -1.3505   -0.3663    1.3655 H   0  0  0  0  0  0  0  0  0  0  0  0
   -1.0470   -0.2691   -0.3857 H   0  0  0  0  0  0  0  0  0  0  0  0
   -1.5944   -6.9474   -0.0683 H   0  0  0  0  0  0  0  0  0  0  0  0
   -3.1212   -6.5767    0.7681 H   0  0  0  0  0  0  0  0  0  0  0  0
   -3.0145   -6.4177   -1.0015 H   0  0  0  0  0  0  0  0  0  0  0  0
   -2.5563   -4.2828   -3.0785 H   0  0  0  0  0  0  0  0  0  0  0  0
    0.4106   -9.1418   -5.1029 H   0  0  0  0  0  0  0  0  0  0  0  0
   -0.9437   -8.2042   -5.7774 H   0  0  0  0  0  0  0  0  0  0  0  0
    0.8040   -1.0344   -2.3583 H   0  0  0  0  0  0  0  0  0  0  0  0
    0.9158   -2.7912   -2.0776 H   0  0  0  0  0  0  0  0  0  0  0  0
    1.1810   -2.1178   -4.5113 H   0  0  0  0  0  0  0  0  0  0  0  0
   -0.1528   -3.2606   -4.2171 H   0  0  0  0  0  0  0  0  0  0  0  0
   -2.6992   -0.7150   -4.6028 H   0  0  0  0  0  0  0  0  0  0  0  0
   -2.4177   -2.4418   -4.2705 H   0  0  0  0  0  0  0  0  0  0  0  0
   -3.0291   -1.3730   -2.1762 H   0  0  0  0  0  0  0  0  0  0  0  0
   -1.8128   -0.0937   -2.4237 H   0  0  0  0  0  0  0  0  0  0  0  0
  1  2  1  0  0  0  0
  1 32  1  0  0  0  0
  1 33  1  0  0  0  0
  1 34  1  0  0  0  0
  2  3  1  0  0  0  0
  2 35  1  0  0  0  0
  2 36  1  0  0  0  0
  3  4  1  0  0  0  0
  3 37  1  0  0  0  0
  3 38  1  0  0  0  0
  4  9  1  0  0  0  0
  4  5  1  0  0  0  0
  5  6  2  0  0  0  0
  5 26  1  0  0  0  0
  6  7  1  0  0  0  0
  6 14  1  0  0  0  0
  7  8  2  0  0  0  0
  7 13  1  0  0  0  0
  8  9  1  0  0  0  0
  8 11  1  0  0  0  0
  9 10  2  0  0  0  0
 11 12  3  0  0  0  0
 13 39  1  0  0  0  0
 13 40  1  0  0  0  0
 13 41  1  0  0  0  0
 14 15  2  0  0  0  0
 14 42  1  0  0  0  0
 15 21  1  0  0  0  0
 15 16  1  0  0  0  0
 16 17  2  0  0  0  0
 16 18  1  0  0  0  0
 18 19  1  0  0  0  0
 18 22  1  0  0  0  0
 19 20  2  0  0  0  0
 19 21  1  0  0  0  0
 22 23  1  0  0  0  0
 22 43  1  0  0  0  0
 22 44  1  0  0  0  0
 23 24  2  0  0  0  0
 23 25  1  0  0  0  0
 26 31  1  0  0  0  0
 26 27  1  0  0  0  0
 27 28  1  0  0  0  0
 27 45  1  0  0  0  0
 27 46  1  0  0  0  0
 28 29  1  0  0  0  0
 28 47  1  0  0  0  0
 28 48  1  0  0  0  0
 29 30  1  0  0  0  0
 30 31  1  0  0  0  0
 30 49  1  0  0  0  0
 30 50  1  0  0  0  0
 31 51  1  0  0  0  0
 31 52  1  0  0  0  0
M  END
$$$$
ZINC19890478
 OpenBabel01252620473D

 47 50  0  0  0  0  0  0  0  0999 V2000
    0.6653   -3.0046   -8.4260 C   0  0  0  0  0  0  0  0  0  0  0  0
   -0.4492   -3.2463   -7.5650 O   0  0  0  0  0  0  0  0  0  0  0  0
   -0.6011   -2.4114   -6.5027 C   0  0  0  0  0  0  0  0  0  0  0  0
   -1.6620   -2.5897   -5.6268 C   0  0  0  0  0  0  0  0  0  0  0  0
   -1.8167   -1.7421   -4.5478 C   0  0  0  0  0  0  0  0  0  0  0  0
   -0.9103   -0.7113   -4.3396 C   0  0  0  0  0  0  0  0  0  0  0  0
    0.1479   -0.5298   -5.2197 C   0  0  0  0  0  0  0  0  0  0  0  0
    0.3052   -1.3818   -6.2949 C   0  0  0  0  0  0  0  0  0  0  0  0
   -1.0670    0.1499   -3.2438 N   0  0  0  0  0  0  0  0  0  0  0  0
   -2.0149    1.1085   -3.2892 C   0  0  0  0  0  0  0  0  0  0  0  0
   -2.7315    1.2329   -4.2649 O   0  0  0  0  0  0  0  0  0  0  0  0
   -2.1597    2.0004   -2.1259 C   0  0  0  0  0  0  0  0  0  0  0  0
   -3.1144    3.0108   -2.1009 C   0  0  0  0  0  0  0  0  0  0  0  0
   -3.3238    3.7500   -0.9254 C   0  0  0  0  0  0  0  0  0  0  0  0
   -3.2295    5.1304   -0.7926 C   0  0  0  0  0  0  0  0  0  0  0  0
   -3.5150    5.4340    0.5378 C   0  0  0  0  0  0  0  0  0  0  0  0
   -3.7798    4.2715    1.1879 C   0  0  0  0  0  0  0  0  0  0  0  0
   -3.6619    3.2394    0.3142 N   0  0  0  0  0  0  0  0  0  0  0  0
   -3.8555    1.8896    0.6153 C   0  0  0  0  0  0  0  0  0  0  0  0
   -4.7814    1.1435   -0.1066 C   0  0  0  0  0  0  0  0  0  0  0  0
   -4.9791   -0.1861    0.1912 C   0  0  0  0  0  0  0  0  0  0  0  0
   -4.2394   -0.7892    1.2125 C   0  0  0  0  0  0  0  0  0  0  0  0
   -3.3054   -0.0379    1.9316 C   0  0  0  0  0  0  0  0  0  0  0  0
   -3.1172    1.2926    1.6320 C   0  0  0  0  0  0  0  0  0  0  0  0
   -4.4442   -2.2149    1.5309 C   0  0  0  0  0  0  0  0  0  0  0  0
   -5.2567   -2.8665    0.9051 O   0  0  0  0  0  0  0  0  0  0  0  0
   -3.7303   -2.7947    2.5157 O   0  0  0  0  0  1  0  0  0  0  0  0
   -1.2448    1.7791   -0.9925 C   0  0  0  0  0  0  0  0  0  0  0  0
   -1.3004    2.4791    0.0014 O   0  5  0  0  0  0  0  0  0  0  0  0
   -0.3470    0.7764   -1.0841 N   0  0  0  0  0  0  0  0  0  0  0  0
   -0.2709    0.0019   -2.1755 C   0  0  0  0  0  0  0  0  0  0  0  0
    0.9045   -1.2424   -2.2064 S   0  0  0  0  0  0  0  0  0  0  0  0
    0.6691   -3.7467   -9.2379 H   0  0  0  0  0  0  0  0  0  0  0  0
    1.5986   -3.0869   -7.8496 H   0  0  0  0  0  0  0  0  0  0  0  0
    0.5861   -1.9941   -8.8533 H   0  0  0  0  0  0  0  0  0  0  0  0
   -2.3668   -3.3919   -5.7886 H   0  0  0  0  0  0  0  0  0  0  0  0
   -2.6429   -1.8808   -3.8661 H   0  0  0  0  0  0  0  0  0  0  0  0
    0.8505    0.2749   -5.0610 H   0  0  0  0  0  0  0  0  0  0  0  0
    1.1313   -1.2439   -6.9767 H   0  0  0  0  0  0  0  0  0  0  0  0
   -3.7057    3.2312   -3.0019 H   0  0  0  0  0  0  0  0  0  0  0  0
   -2.9818    5.8348   -1.5729 H   0  0  0  0  0  0  0  0  0  0  0  0
   -3.5284    6.4219    0.9741 H   0  0  0  0  0  0  0  0  0  0  0  0
   -4.0398    4.1823    2.2323 H   0  0  0  0  0  0  0  0  0  0  0  0
   -5.3492    1.6089   -0.8988 H   0  0  0  0  0  0  0  0  0  0  0  0
   -5.7016   -0.7635   -0.3664 H   0  0  0  0  0  0  0  0  0  0  0  0
   -2.7319   -0.5007    2.7211 H   0  0  0  0  0  0  0  0  0  0  0  0
   -2.3958    1.8737    2.1872 H   0  0  0  0  0  0  0  0  0  0  0  0
  1  2  1  0  0  0  0
  1 33  1  0  0  0  0
  1 34  1  0  0  0  0
  1 35  1  0  0  0  0
  2  3  1  0  0  0  0
  3  8  2  0  0  0  0
  3  4  1  0  0  0  0
  4  5  2  0  0  0  0
  4 36  1  0  0  0  0
  5  6  1  0  0  0  0
  5 37  1  0  0  0  0
  6  7  2  0  0  0  0
  6  9  1  0  0  0  0
  7  8  1  0  0  0  0
  7 38  1  0  0  0  0
  8 39  1  0  0  0  0
  9 31  1  0  0  0  0
  9 10  1  0  0  0  0
 10 11  2  0  0  0  0
 10 12  1  0  0  0  0
 12 13  2  0  0  0  0
 12 28  1  0  0  0  0
 13 14  1  0  0  0  0
 13 40  1  0  0  0  0
 14 18  1  0  0  0  0
 14 15  2  0  0  0  0
 15 16  1  0  0  0  0
 15 41  1  0  0  0  0
 16 17  2  0  0  0  0
 16 42  1  0  0  0  0
 17 18  1  0  0  0  0
 17 43  1  0  0  0  0
 18 19  1  0  0  0  0
 19 24  2  0  0  0  0
 19 20  1  0  0  0  0
 20 21  2  0  0  0  0
 20 44  1  0  0  0  0
 21 22  1  0  0  0  0
 21 45  1  0  0  0  0
 22 23  2  0  0  0  0
 22 25  1  0  0  0  0
 23 24  1  0  0  0  0
 23 46  1  0  0  0  0
 24 47  1  0  0  0  0
 25 26  2  0  0  0  0
 25 27  1  0  0  0  0
 28 29  1  0  0  0  0
 28 30  2  0  0  0  0
 30 31  1  0  0  0  0
 31 32  2  0  0  0  0
M  CHG  1  29  -1
M  END
$$$$
ZINC17426743
 OpenBabel01252620473D

 34 33  0  0  1  0  0  0  0  0999 V2000
   -2.3802    0.9435    1.6599 C   0  0  0  0  0  0  0  0  0  0  0  0
   -0.8851    1.1095    1.9394 C   0  0  2  0  0  0  0  0  0  0  0  0
   -0.3966    2.4276    1.3353 C   0  0  0  0  0  0  0  0  0  0  0  0
   -0.6347    2.4152   -0.1760 C   0  0  0  0  0  0  0  0  0  0  0  0
   -0.1536    3.7135   -0.7710 C   0  0  0  0  0  0  0  0  0  0  0  0
    0.3301    4.5617   -0.0593 O   0  0  0  0  0  0  0  0  0  0  0  0
   -0.1457   -0.0109    1.3353 C   0  0  0  0  0  0  0  0  0  0  0  0
    0.4249   -0.8755    0.8692 N   0  0  0  0  0  0  0  0  0  0  0  0
   -0.6571    1.1214    3.3865 N   0  0  0  0  0  0  0  0  0  0  0  0
   -1.0501    0.1743    4.0838 N   0  0  0  0  0  0  0  0  0  0  0  0
   -0.8966   -1.2015    3.6044 C   0  0  1  0  0  0  0  0  0  0  0  0
    0.5817   -1.4837    3.3291 C   0  0  0  0  0  0  0  0  0  0  0  0
   -1.4118   -2.1728    4.6684 C   0  0  0  0  0  0  0  0  0  0  0  0
   -1.2514   -3.6096    4.1677 C   0  0  0  0  0  0  0  0  0  0  0  0
   -1.7588   -4.5664    5.2157 C   0  0  0  0  0  0  0  0  0  0  0  0
   -2.2031   -4.1425    6.2563 O   0  0  0  0  0  0  0  0  0  0  0  0
   -1.6691   -1.3778    2.3638 C   0  0  0  0  0  0  0  0  0  0  0  0
   -2.2652   -1.5140    1.4064 N   0  0  0  0  0  0  0  0  0  0  0  0
   -2.5206    0.5619    0.6486 H   0  0  0  0  0  0  0  0  0  0  0  0
   -2.8079    0.2416    2.3758 H   0  0  0  0  0  0  0  0  0  0  0  0
   -2.8772    1.9088    1.7563 H   0  0  0  0  0  0  0  0  0  0  0  0
    0.6685    2.5458    1.5344 H   0  0  0  0  0  0  0  0  0  0  0  0
   -0.9441    3.2572    1.7826 H   0  0  0  0  0  0  0  0  0  0  0  0
   -1.6998    2.2970   -0.3751 H   0  0  0  0  0  0  0  0  0  0  0  0
   -0.0872    1.5856   -0.6233 H   0  0  0  0  0  0  0  0  0  0  0  0
    1.1184   -1.5641    4.2744 H   0  0  0  0  0  0  0  0  0  0  0  0
    0.6765   -2.4187    2.7769 H   0  0  0  0  0  0  0  0  0  0  0  0
    1.0035   -0.6694    2.7400 H   0  0  0  0  0  0  0  0  0  0  0  0
   -0.8398   -2.0422    5.5870 H   0  0  0  0  0  0  0  0  0  0  0  0
   -2.4650   -1.9718    4.8645 H   0  0  0  0  0  0  0  0  0  0  0  0
   -1.8234   -3.7402    3.2490 H   0  0  0  0  0  0  0  0  0  0  0  0
   -0.1982   -3.8107    3.9716 H   0  0  0  0  0  0  0  0  0  0  0  0
   -0.2624    3.9276   -2.0916 O   0  0  0  0  0  1  0  0  0  0  0  0
   -1.7172   -5.8894    4.9931 O   0  0  0  0  0  1  0  0  0  0  0  0
  1  2  1  0  0  0  0
  1 19  1  0  0  0  0
  1 20  1  0  0  0  0
  1 21  1  0  0  0  0
  2  3  1  0  0  0  0
  2  7  1  6  0  0  0
  2  9  1  0  0  0  0
  3  4  1  0  0  0  0
  3 22  1  0  0  0  0
  3 23  1  0  0  0  0
  4  5  1  0  0  0  0
  4 24  1  0  0  0  0
  4 25  1  0  0  0  0
  5  6  2  0  0  0  0
  5 33  1  0  0  0  0
  7  8  3  0  0  0  0
  9 10  2  0  0  0  0
 10 11  1  0  0  0  0
 11 12  1  0  0  0  0
 11 13  1  0  0  0  0
 11 17  1  6  0  0  0
 12 26  1  0  0  0  0
 12 27  1  0  0  0  0
 12 28  1  0  0  0  0
 13 14  1  0  0  0  0
 13 29  1  0  0  0  0
 13 30  1  0  0  0  0
 14 15  1  0  0  0  0
 14 31  1  0  0  0  0
 14 32  1  0  0  0  0
 15 16  2  0  0  0  0
 15 34  1  0  0  0  0
 17 18  3  0  0  0  0
M  END
$$$$
ZINC08741307
 OpenBabel01252620473D

 40 42  0  0  0  0  0  0  0  0999 V2000
   -0.0701    1.3289   -1.1946 C   0  0  0  0  0  0  0  0  0  0  0  0
   -0.0647   -0.1506   -0.9083 C   0  0  0  0  0  0  0  0  0  0  0  0
   -0.4907   -1.0422   -1.8757 C   0  0  0  0  0  0  0  0  0  0  0  0
   -0.4869   -2.3987   -1.6163 C   0  0  0  0  0  0  0  0  0  0  0  0
   -0.0546   -2.8670   -0.3827 C   0  0  0  0  0  0  0  0  0  0  0  0
    0.3726   -1.9693    0.5866 C   0  0  0  0  0  0  0  0  0  0  0  0
    0.3717   -0.6142    0.3192 C   0  0  0  0  0  0  0  0  0  0  0  0
   -0.0500   -4.2426   -0.1163 N   0  0  0  0  0  0  0  0  0  0  0  0
   -1.1680   -5.0288   -0.0507 C   0  0  0  0  0  0  0  0  0  0  0  0
   -0.8059   -6.2924    0.2217 C   0  0  0  0  0  0  0  0  0  0  0  0
    0.6608   -6.2893    0.3344 C   0  0  0  0  0  0  0  0  0  0  0  0
    1.0554   -4.9781    0.1054 C   0  0  0  0  0  0  0  0  0  0  0  0
    2.4730   -4.4669    0.1079 C   0  0  0  0  0  0  0  0  0  0  0  0
    1.4968   -7.3950    0.6128 C   0  0  0  0  0  0  0  0  0  0  0  0
    1.3019   -8.5978   -0.0531 C   0  0  0  0  0  0  0  0  0  0  0  0
    0.3862   -8.7022   -1.1983 C   0  0  0  0  0  0  0  0  0  0  0  0
   -0.2955   -7.6228   -1.6379 O   0  5  0  0  0  0  0  0  0  0  0  0
    0.2457   -9.8768   -1.7881 N   0  0  0  0  0  0  0  0  0  0  0  0
    0.9045  -10.9569   -1.3773 C   0  0  0  0  0  0  0  0  0  0  0  0
    0.6476  -12.4283   -2.2141 S   0  0  0  0  0  0  0  0  0  0  0  0
    1.7591  -10.9564   -0.3439 N   0  0  0  0  0  0  0  0  0  0  0  0
    2.0091   -9.8271    0.3531 C   0  0  0  0  0  0  0  0  0  0  0  0
    2.7886   -9.8245    1.2878 O   0  0  0  0  0  0  0  0  0  0  0  0
   -2.5831   -4.5511   -0.2516 C   0  0  0  0  0  0  0  0  0  0  0  0
    0.8865    1.6184   -1.6296 H   0  0  0  0  0  0  0  0  0  0  0  0
   -0.8726    1.5605   -1.8950 H   0  0  0  0  0  0  0  0  0  0  0  0
   -0.2282    1.8780   -0.2664 H   0  0  0  0  0  0  0  0  0  0  0  0
   -0.8271   -0.6773   -2.8349 H   0  0  0  0  0  0  0  0  0  0  0  0
   -0.8201   -3.0946   -2.3721 H   0  0  0  0  0  0  0  0  0  0  0  0
    0.7093   -2.3305    1.5471 H   0  0  0  0  0  0  0  0  0  0  0  0
    0.7080    0.0842    1.0711 H   0  0  0  0  0  0  0  0  0  0  0  0
   -1.4616   -7.1429    0.3360 H   0  0  0  0  0  0  0  0  0  0  0  0
    2.7427   -4.1487    1.1149 H   0  0  0  0  0  0  0  0  0  0  0  0
    3.1462   -5.2612   -0.2147 H   0  0  0  0  0  0  0  0  0  0  0  0
    2.5555   -3.6211   -0.5747 H   0  0  0  0  0  0  0  0  0  0  0  0
    2.2870   -7.3041    1.3433 H   0  0  0  0  0  0  0  0  0  0  0  0
    2.2080  -11.7796   -0.0955 H   0  0  0  0  0  0  0  0  0  0  0  0
   -2.8470   -4.6300   -1.3062 H   0  0  0  0  0  0  0  0  0  0  0  0
   -3.2616   -5.1661    0.3396 H   0  0  0  0  0  0  0  0  0  0  0  0
   -2.6644   -3.5117    0.0665 H   0  0  0  0  0  0  0  0  0  0  0  0
  1  2  1  0  0  0  0
  1 25  1  0  0  0  0
  1 26  1  0  0  0  0
  1 27  1  0  0  0  0
  2  7  2  0  0  0  0
  2  3  1  0  0  0  0
  3  4  2  0  0  0  0
  3 28  1  0  0  0  0
  4  5  1  0  0  0  0
  4 29  1  0  0  0  0
  5  6  2  0  0  0  0
  5  8  1  0  0  0  0
  6  7  1  0  0  0  0
  6 30  1  0  0  0  0
  7 31  1  0  0  0  0
  8 12  1  0  0  0  0
  8  9  1  0  0  0  0
  9 10  2  0  0  0  0
  9 24  1  0  0  0  0
 10 11  1  0  0  0  0
 10 32  1  0  0  0  0
 11 12  2  0  0  0  0
 11 14  1  0  0  0  0
 12 13  1  0  0  0  0
 13 33  1  0  0  0  0
 13 34  1  0  0  0  0
 13 35  1  0  0  0  0
 14 15  2  0  0  0  0
 14 36  1  0  0  0  0
 15 22  1  0  0  0  0
 15 16  1  0  0  0  0
 16 17  1  0  0  0  0
 16 18  2  0  0  0  0
 18 19  1  0  0  0  0
 19 20  2  0  0  0  0
 19 21  1  0  0  0  0
 21 22  1  0  0  0  0
 21 37  1  0  0  0  0
 22 23  2  0  0  0  0
 24 38  1  0  0  0  0
 24 39  1  0  0  0  0
 24 40  1  0  0  0  0
M  CHG  1  17  -1
M  END
$$$$
ZINC13450822
 OpenBabel01252620473D

 45 46  0  0  0  0  0  0  0  0999 V2000
   -2.2350    1.1402   -0.7407 C   0  0  0  0  0  0  0  0  0  0  0  0
   -1.1660    1.8812   -0.0666 N   0  0  0  0  0  0  0  0  0  0  0  0
   -0.1428    1.2001    0.4822 C   0  0  0  0  0  0  0  0  0  0  0  0
   -0.1101   -0.0175    0.4162 O   0  0  0  0  0  0  0  0  0  0  0  0
    0.8959    1.9053    1.1299 C   0  0  0  0  0  0  0  0  0  0  0  0
    0.8125    3.2651    1.1761 C   0  0  0  0  0  0  0  0  0  0  0  0
   -0.3071    3.8885    0.5737 C   0  0  0  0  0  0  0  0  0  0  0  0
   -1.2331    3.1621   -0.0111 N   0  0  0  0  0  0  0  0  0  0  0  0
   -0.4345    5.3611    0.6023 C   0  0  0  0  0  0  0  0  0  0  0  0
    0.4212    6.0348    1.1423 O   0  0  0  0  0  0  0  0  0  0  0  0
   -1.4993    5.9566    0.0296 N   0  0  0  0  0  0  0  0  0  0  0  0
   -1.6671    7.3355    0.1361 C   0  0  0  0  0  0  0  0  0  0  0  0
   -0.5620    8.1729    0.1299 C   0  0  0  0  0  0  0  0  0  0  0  0
   -0.7295    9.5443    0.2311 C   0  0  0  0  0  0  0  0  0  0  0  0
   -2.0089   10.0901    0.3504 C   0  0  0  0  0  0  0  0  0  0  0  0
   -3.1153    9.2674    0.3631 C   0  0  0  0  0  0  0  0  0  0  0  0
   -2.9555    7.8808    0.2560 C   0  0  0  0  0  0  0  0  0  0  0  0
   -4.1326    6.9984    0.2695 C   0  0  0  0  0  0  0  0  0  0  0  0
   -3.9875    5.7917    0.2758 O   0  0  0  0  0  0  0  0  0  0  0  0
   -2.1645   11.4378    0.4541 O   0  0  0  0  0  0  0  0  0  0  0  0
   -3.5010   11.9293    0.5728 C   0  0  0  0  0  0  0  0  0  0  0  0
    0.3555   10.3606    0.2193 O   0  0  0  0  0  0  0  0  0  0  0  0
    1.6352    9.7371    0.0946 C   0  0  0  0  0  0  0  0  0  0  0  0
    2.7274   10.8086    0.1002 C   0  0  0  0  0  0  0  0  0  0  0  0
    2.7473   11.4617    1.3711 O   0  0  0  0  0  0  0  0  0  0  0  0
    3.7374   12.4861    1.4826 C   0  0  0  0  0  0  0  0  0  0  0  0
   -3.0164    0.8949   -0.0215 H   0  0  0  0  0  0  0  0  0  0  0  0
   -2.6547    1.7531   -1.5384 H   0  0  0  0  0  0  0  0  0  0  0  0
   -1.8291    0.2213   -1.1638 H   0  0  0  0  0  0  0  0  0  0  0  0
    1.7304    1.3832    1.5745 H   0  0  0  0  0  0  0  0  0  0  0  0
    1.5799    3.8515    1.6595 H   0  0  0  0  0  0  0  0  0  0  0  0
   -2.1488    5.4251   -0.4568 H   0  0  0  0  0  0  0  0  0  0  0  0
    0.4303    7.7558    0.0420 H   0  0  0  0  0  0  0  0  0  0  0  0
   -4.1040    9.6922    0.4551 H   0  0  0  0  0  0  0  0  0  0  0  0
   -3.9638   11.5115    1.4668 H   0  0  0  0  0  0  0  0  0  0  0  0
   -3.4830   13.0166    0.6473 H   0  0  0  0  0  0  0  0  0  0  0  0
   -4.0758   11.6348   -0.3053 H   0  0  0  0  0  0  0  0  0  0  0  0
    1.7905    9.0557    0.9310 H   0  0  0  0  0  0  0  0  0  0  0  0
    1.6781    9.1796   -0.8411 H   0  0  0  0  0  0  0  0  0  0  0  0
    3.6951   10.3420   -0.0838 H   0  0  0  0  0  0  0  0  0  0  0  0
    2.5224   11.5404   -0.6812 H   0  0  0  0  0  0  0  0  0  0  0  0
    3.6879   12.9327    2.4757 H   0  0  0  0  0  0  0  0  0  0  0  0
    4.7261   12.0543    1.3273 H   0  0  0  0  0  0  0  0  0  0  0  0
    3.5534   13.2527    0.7299 H   0  0  0  0  0  0  0  0  0  0  0  0
   -5.3721    7.5283    0.2748 O   0  0  0  0  0  1  0  0  0  0  0  0
  1  2  1  0  0  0  0
  1 27  1  0  0  0  0
  1 28  1  0  0  0  0
  1 29  1  0  0  0  0
  2  8  1  0  0  0  0
  2  3  1  0  0  0  0
  3  4  2  0  0  0  0
  3  5  1  0  0  0  0
  5  6  2  0  0  0  0
  5 30  1  0  0  0  0
  6  7  1  0  0  0  0
  6 31  1  0  0  0  0
  7  8  2  0  0  0  0
  7  9  1  0  0  0  0
  9 10  2  0  0  0  0
  9 11  1  0  0  0  0
 11 12  1  0  0  0  0
 11 32  1  0  0  0  0
 12 17  2  0  0  0  0
 12 13  1  0  0  0  0
 13 14  2  0  0  0  0
 13 33  1  0  0  0  0
 14 15  1  0  0  0  0
 14 22  1  0  0  0  0
 15 16  2  0  0  0  0
 15 20  1  0  0  0  0
 16 17  1  0  0  0  0
 16 34  1  0  0  0  0
 17 18  1  0  0  0  0
 18 19  2  0  0  0  0
 18 45  1  0  0  0  0
 20 21  1  0  0  0  0
 21 35  1  0  0  0  0
 21 36  1  0  0  0  0
 21 37  1  0  0  0  0
 22 23  1  0  0  0  0
 23 24  1  0  0  0  0
 23 38  1  0  0  0  0
 23 39  1  0  0  0  0
 24 25  1  0  0  0  0
 24 40  1  0  0  0  0
 24 41  1  0  0  0  0
 25 26  1  0  0  0  0
 26 42  1  0  0  0  0
 26 43  1  0  0  0  0
 26 44  1  0  0  0  0
M  END
$$$$
ZINC13450139
 OpenBabel01252620473D

 45 46  0  0  0  0  0  0  0  0999 V2000
   -0.0184    1.5028    0.0103 C   0  0  0  0  0  0  0  0  0  0  0  0
    0.0021   -0.0041    0.0020 C   0  0  0  0  0  0  0  0  0  0  0  0
    0.0058   -0.6672   -1.1444 N   0  0  0  0  0  0  0  0  0  0  0  0
    0.0242   -1.9922   -1.1637 C   0  0  0  0  0  0  0  0  0  0  0  0
    0.0395   -2.7033   -0.0452 N   0  0  0  0  0  0  0  0  0  0  0  0
    0.0368   -2.1025    1.1382 C   0  0  0  0  0  0  0  0  0  0  0  0
    0.0525   -2.8329    2.2795 O   0  5  0  0  0  0  0  0  0  0  0  0
    0.0229   -0.7090    1.1907 C   0  0  0  0  0  0  0  0  0  0  0  0
    0.0257    0.0120    2.5140 C   0  0  0  0  0  0  0  0  0  0  0  0
   -1.4157    0.2364    2.9755 C   0  0  0  0  0  0  0  0  0  0  0  0
   -1.4130    0.9575    4.2988 C   0  0  0  0  0  0  0  0  0  0  0  0
   -0.3562    1.2636    4.8241 O   0  0  0  0  0  0  0  0  0  0  0  0
   -2.4676    1.2348    4.8441 O   0  0  0  0  0  1  0  0  0  0  0  0
    0.0278   -2.8292   -2.7143 S   0  0  0  0  0  0  0  0  0  0  0  0
    0.0546   -4.5863   -2.2644 C   0  0  0  0  0  0  0  0  0  0  0  0
    0.0598   -5.4253   -3.5163 C   0  0  0  0  0  0  0  0  0  0  0  0
    0.0467   -4.8905   -4.6048 O   0  0  0  0  0  0  0  0  0  0  0  0
    0.0790   -6.7699   -3.4263 N   0  0  0  0  0  0  0  0  0  0  0  0
    0.0948   -7.4159   -2.1115 C   0  0  0  0  0  0  0  0  0  0  0  0
    0.0840   -7.5855   -4.6432 C   0  0  0  0  0  0  0  0  0  0  0  0
    1.5064   -7.8454   -5.0679 C   0  0  0  0  0  0  0  0  0  0  0  0
    2.0752   -7.0918   -6.0774 C   0  0  0  0  0  0  0  0  0  0  0  0
    3.3798   -7.3299   -6.4672 C   0  0  0  0  0  0  0  0  0  0  0  0
    4.1173   -8.3220   -5.8478 C   0  0  0  0  0  0  0  0  0  0  0  0
    3.5510   -9.0762   -4.8380 C   0  0  0  0  0  0  0  0  0  0  0  0
    2.2458   -8.8351   -4.4432 C   0  0  0  0  0  0  0  0  0  0  0  0
    1.6926   -9.5688   -3.4528 F   0  0  0  0  0  0  0  0  0  0  0  0
    1.0042    1.8801    0.0026 H   0  0  0  0  0  0  0  0  0  0  0  0
   -0.5455    1.8639   -0.8728 H   0  0  0  0  0  0  0  0  0  0  0  0
   -0.5286    1.8543    0.9071 H   0  0  0  0  0  0  0  0  0  0  0  0
    0.5547   -0.5885    3.2539 H   0  0  0  0  0  0  0  0  0  0  0  0
    0.5254    0.9743    2.4024 H   0  0  0  0  0  0  0  0  0  0  0  0
   -1.9448    0.8370    2.2355 H   0  0  0  0  0  0  0  0  0  0  0  0
   -1.9155   -0.7258    3.0871 H   0  0  0  0  0  0  0  0  0  0  0  0
    0.9507   -4.7984   -1.6812 H   0  0  0  0  0  0  0  0  0  0  0  0
   -0.8291   -4.8232   -1.6719 H   0  0  0  0  0  0  0  0  0  0  0  0
   -0.9288   -7.5904   -1.7801 H   0  0  0  0  0  0  0  0  0  0  0  0
    0.6216   -8.3676   -2.1806 H   0  0  0  0  0  0  0  0  0  0  0  0
    0.6035   -6.7702   -1.3956 H   0  0  0  0  0  0  0  0  0  0  0  0
   -0.4156   -8.5342   -4.4469 H   0  0  0  0  0  0  0  0  0  0  0  0
   -0.4414   -7.0558   -5.4378 H   0  0  0  0  0  0  0  0  0  0  0  0
    1.4999   -6.3169   -6.5622 H   0  0  0  0  0  0  0  0  0  0  0  0
    3.8232   -6.7409   -7.2563 H   0  0  0  0  0  0  0  0  0  0  0  0
    5.1364   -8.5076   -6.1536 H   0  0  0  0  0  0  0  0  0  0  0  0
    4.1272   -9.8513   -4.3546 H   0  0  0  0  0  0  0  0  0  0  0  0
  1  2  1  0  0  0  0
  1 28  1  0  0  0  0
  1 29  1  0  0  0  0
  1 30  1  0  0  0  0
  2  8  2  0  0  0  0
  2  3  1  0  0  0  0
  3  4  2  0  0  0  0
  4  5  1  0  0  0  0
  4 14  1  0  0  0  0
  5  6  2  0  0  0  0
  6  7  1  0  0  0  0
  6  8  1  0  0  0  0
  8  9  1  0  0  0  0
  9 10  1  0  0  0  0
  9 31  1  0  0  0  0
  9 32  1  0  0  0  0
 10 11  1  0  0  0  0
 10 33  1  0  0  0  0
 10 34  1  0  0  0  0
 11 12  2  0  0  0  0
 11 13  1  0  0  0  0
 14 15  1  0  0  0  0
 15 16  1  0  0  0  0
 15 35  1  0  0  0  0
 15 36  1  0  0  0  0
 16 17  2  0  0  0  0
 16 18  1  0  0  0  0
 18 19  1  0  0  0  0
 18 20  1  0  0  0  0
 19 37  1  0  0  0  0
 19 38  1  0  0  0  0
 19 39  1  0  0  0  0
 20 21  1  0  0  0  0
 20 40  1  0  0  0  0
 20 41  1  0  0  0  0
 21 26  2  0  0  0  0
 21 22  1  0  0  0  0
 22 23  2  0  0  0  0
 22 42  1  0  0  0  0
 23 24  1  0  0  0  0
 23 43  1  0  0  0  0
 24 25  2  0  0  0  0
 24 44  1  0  0  0  0
 25 26  1  0  0  0  0
 25 45  1  0  0  0  0
 26 27  1  0  0  0  0
M  CHG  1   7  -1
M  END
$$$$
ZINC61176310
 OpenBabel01252620473D

 44 44  0  0  1  0  0  0  0  0999 V2000
    1.3309   -1.6049   -1.1361 C   0  0  0  0  0  0  0  0  0  0  0  0
    2.8425   -1.7201   -1.3428 C   0  0  1  0  0  0  0  0  0  0  0  0
    3.1057   -2.7618   -1.5264 H   0  0  0  0  0  0  0  0  0  0  0  0
    3.2592   -0.8695   -2.5443 C   0  0  0  0  0  0  0  0  0  0  0  0
    4.7708   -0.9847   -2.7511 C   0  0  0  0  0  0  0  0  0  0  0  0
    5.4961   -0.4884   -1.4987 C   0  0  0  0  0  0  0  0  0  0  0  0
    5.0794   -1.3391   -0.2972 C   0  0  0  0  0  0  0  0  0  0  0  0
    3.5678   -1.2239   -0.0905 C   0  0  2  0  0  0  0  0  0  0  0  0
    3.3046   -0.1822    0.0931 H   0  0  0  0  0  0  0  0  0  0  0  0
    3.1688   -2.0384    1.0600 N   0  0  0  0  0  0  0  0  0  0  0  0
    3.8713   -3.2909    1.3496 C   0  0  0  0  0  0  0  0  0  0  0  0
    2.1555   -1.6354    1.8520 C   0  0  0  0  0  0  0  0  0  0  0  0
    1.5645   -2.4437    2.5417 O   0  0  0  0  0  0  0  0  0  0  0  0
    1.7972   -0.3364    1.8794 N   0  0  0  0  0  0  0  0  0  0  0  0
    0.4091    0.0346    2.1652 C   0  0  0  0  0  0  0  0  0  0  0  0
    2.7958    0.7044    1.6233 C   0  0  0  0  0  0  0  0  0  0  0  0
    2.5131    1.3606    0.2703 C   0  0  0  0  0  0  0  0  0  0  0  0
    2.7254    1.7614    2.7273 C   0  0  0  0  0  0  0  0  0  0  0  0
    4.1707    0.0878    1.6050 C   0  0  0  0  0  0  0  0  0  0  0  0
    4.3665   -0.9818    2.1564 O   0  0  0  0  0  0  0  0  0  0  0  0
    5.0873    0.6586    1.0389 O   0  0  0  0  0  1  0  0  0  0  0  0
    1.1231   -0.8289   -0.3994 H   0  0  0  0  0  0  0  0  0  0  0  0
    0.8536   -1.3458   -2.0812 H   0  0  0  0  0  0  0  0  0  0  0  0
    0.9391   -2.5578   -0.7804 H   0  0  0  0  0  0  0  0  0  0  0  0
    2.7424   -1.2230   -3.4366 H   0  0  0  0  0  0  0  0  0  0  0  0
    2.9959    0.1722   -2.3608 H   0  0  0  0  0  0  0  0  0  0  0  0
    5.0340   -2.0264   -2.9347 H   0  0  0  0  0  0  0  0  0  0  0  0
    5.0676   -0.3787   -3.6071 H   0  0  0  0  0  0  0  0  0  0  0  0
    6.5730   -0.5705   -1.6460 H   0  0  0  0  0  0  0  0  0  0  0  0
    5.2329    0.5533   -1.3152 H   0  0  0  0  0  0  0  0  0  0  0  0
    5.3426   -2.3808   -0.4808 H   0  0  0  0  0  0  0  0  0  0  0  0
    5.5962   -0.9856    0.5950 H   0  0  0  0  0  0  0  0  0  0  0  0
    4.6584   -3.1055    2.0805 H   0  0  0  0  0  0  0  0  0  0  0  0
    3.1661   -4.0184    1.7517 H   0  0  0  0  0  0  0  0  0  0  0  0
    4.3120   -3.6809    0.4321 H   0  0  0  0  0  0  0  0  0  0  0  0
    0.3026    0.2522    3.2280 H   0  0  0  0  0  0  0  0  0  0  0  0
    0.1423    0.9180    1.5851 H   0  0  0  0  0  0  0  0  0  0  0  0
   -0.2505   -0.7901    1.8953 H   0  0  0  0  0  0  0  0  0  0  0  0
    2.6404    2.4397    0.3562 H   0  0  0  0  0  0  0  0  0  0  0  0
    3.2070    0.9709   -0.4745 H   0  0  0  0  0  0  0  0  0  0  0  0
    1.4904    1.1385   -0.0346 H   0  0  0  0  0  0  0  0  0  0  0  0
    2.9268    1.2939    3.6911 H   0  0  0  0  0  0  0  0  0  0  0  0
    3.4684    2.5358    2.5367 H   0  0  0  0  0  0  0  0  0  0  0  0
    1.7309    2.2073    2.7405 H   0  0  0  0  0  0  0  0  0  0  0  0
  1  2  1  0  0  0  0
  1 22  1  0  0  0  0
  1 23  1  0  0  0  0
  1 24  1  0  0  0  0
  2  3  1  6  0  0  0
  2  8  1  0  0  0  0
  2  4  1  0  0  0  0
  4  5  1  0  0  0  0
  4 25  1  0  0  0  0
  4 26  1  0  0  0  0
  5  6  1  0  0  0  0
  5 27  1  0  0  0  0
  5 28  1  0  0  0  0
  6  7  1  0  0  0  0
  6 29  1  0  0  0  0
  6 30  1  0  0  0  0
  7  8  1  0  0  0  0
  7 31  1  0  0  0  0
  7 32  1  0  0  0  0
  8  9  1  1  0  0  0
  8 10  1  0  0  0  0
 10 11  1  0  0  0  0
 10 12  1  0  0  0  0
 11 33  1  0  0  0  0
 11 34  1  0  0  0  0
 11 35  1  0  0  0  0
 12 13  2  0  0  0  0
 12 14  1  0  0  0  0
 14 15  1  0  0  0  0
 14 16  1  0  0  0  0
 15 36  1  0  0  0  0
 15 37  1  0  0  0  0
 15 38  1  0  0  0  0
 16 17  1  0  0  0  0
 16 18  1  0  0  0  0
 16 19  1  0  0  0  0
 17 39  1  0  0  0  0
 17 40  1  0  0  0  0
 17 41  1  0  0  0  0
 18 42  1  0  0  0  0
 18 43  1  0  0  0  0
 18 44  1  0  0  0  0
 19 20  2  0  0  0  0
 19 21  1  0  0  0  0
M  END
$$$$
ZINC13190963
 OpenBabel01252620473D

 48 50  0  0  0  0  0  0  0  0999 V2000
    1.2489   -1.2916    3.5819 C   0  0  0  0  0  0  0  0  0  0  0  0
    0.0663   -1.5232    4.2570 C   0  0  0  0  0  0  0  0  0  0  0  0
   -1.1441   -1.1703    3.6753 C   0  0  0  0  0  0  0  0  0  0  0  0
   -1.1614   -0.5853    2.4157 C   0  0  0  0  0  0  0  0  0  0  0  0
    0.0244   -0.3564    1.7460 C   0  0  0  0  0  0  0  0  0  0  0  0
    1.2280   -0.7139    2.3259 C   0  0  0  0  0  0  0  0  0  0  0  0
    0.0035    0.3852    0.1478 S   0  0  0  0  0  0  0  0  0  0  0  0
   -1.2784    0.1212   -0.4057 O   0  0  0  0  0  0  0  0  0  0  0  0
    1.2073   -0.0067   -0.4975 O   0  0  0  0  0  0  0  0  0  0  0  0
    0.0960    2.0240    0.3672 N   0  0  0  0  0  0  0  0  0  0  0  0
   -1.1210    2.8392    0.5079 C   0  0  0  0  0  0  0  0  0  0  0  0
   -0.9682    3.7157    1.7614 C   0  0  0  0  0  0  0  0  0  0  0  0
    0.2683    4.4293    1.6867 O   0  0  0  0  0  0  0  0  0  0  0  0
    1.4272    3.5923    1.6734 C   0  0  0  0  0  0  0  0  0  0  0  0
    1.3973    2.7088    0.4210 C   0  0  0  0  0  0  0  0  0  0  0  0
   -2.3439   -1.4039    4.3563 N   0  0  0  0  0  0  0  0  0  0  0  0
   -3.4598   -1.7159    3.6679 C   0  0  0  0  0  0  0  0  0  0  0  0
   -3.4043   -1.8881    2.4686 O   0  0  0  0  0  0  0  0  0  0  0  0
   -4.7766   -1.8507    4.3883 C   0  0  0  0  0  0  0  0  0  0  0  0
   -5.8012   -2.1838    3.4496 O   0  0  0  0  0  0  0  0  0  0  0  0
   -7.0571   -2.3425    3.9388 C   0  0  0  0  0  0  0  0  0  0  0  0
   -7.2970   -2.1801    5.2983 C   0  0  0  0  0  0  0  0  0  0  0  0
   -8.5696   -2.3398    5.7989 C   0  0  0  0  0  0  0  0  0  0  0  0
   -9.6218   -2.6656    4.9380 C   0  0  0  0  0  0  0  0  0  0  0  0
   -9.3770   -2.8282    3.5715 C   0  0  0  0  0  0  0  0  0  0  0  0
   -8.1016   -2.6615    3.0778 C   0  0  0  0  0  0  0  0  0  0  0  0
   -7.7696   -2.8732    1.2282 Br  0  0  0  0  0  0  0  0  0  0  0  0
  -10.9863   -2.8380    5.4703 C   0  0  0  0  0  0  0  0  0  0  0  0
  -11.1972   -2.6967    6.6585 O   0  0  0  0  0  0  0  0  0  0  0  0
    2.1906   -1.5663    4.0337 H   0  0  0  0  0  0  0  0  0  0  0  0
    0.0830   -1.9786    5.2362 H   0  0  0  0  0  0  0  0  0  0  0  0
   -2.1012   -0.3093    1.9607 H   0  0  0  0  0  0  0  0  0  0  0  0
    2.1537   -0.5380    1.7982 H   0  0  0  0  0  0  0  0  0  0  0  0
   -1.2437    3.4705   -0.3722 H   0  0  0  0  0  0  0  0  0  0  0  0
   -1.9884    2.1882    0.6172 H   0  0  0  0  0  0  0  0  0  0  0  0
   -0.9723    3.0865    2.6515 H   0  0  0  0  0  0  0  0  0  0  0  0
   -1.7950    4.4242    1.8126 H   0  0  0  0  0  0  0  0  0  0  0  0
    1.4318    2.9627    2.5631 H   0  0  0  0  0  0  0  0  0  0  0  0
    2.3238    4.2121    1.6604 H   0  0  0  0  0  0  0  0  0  0  0  0
    2.1983    1.9714    0.4728 H   0  0  0  0  0  0  0  0  0  0  0  0
    1.5241    3.3267   -0.4679 H   0  0  0  0  0  0  0  0  0  0  0  0
   -2.3725   -1.3414    5.3239 H   0  0  0  0  0  0  0  0  0  0  0  0
   -4.7013   -2.6378    5.1386 H   0  0  0  0  0  0  0  0  0  0  0  0
   -5.0227   -0.9070    4.8752 H   0  0  0  0  0  0  0  0  0  0  0  0
   -6.4839   -1.9280    5.9630 H   0  0  0  0  0  0  0  0  0  0  0  0
   -8.7549   -2.2130    6.8553 H   0  0  0  0  0  0  0  0  0  0  0  0
  -10.1871   -3.0800    2.9031 H   0  0  0  0  0  0  0  0  0  0  0  0
  -11.9991   -3.1521    4.6389 O   0  0  0  0  0  1  0  0  0  0  0  0
  1  6  2  0  0  0  0
  1  2  1  0  0  0  0
  1 30  1  0  0  0  0
  2  3  2  0  0  0  0
  2 31  1  0  0  0  0
  3  4  1  0  0  0  0
  3 16  1  0  0  0  0
  4  5  2  0  0  0  0
  4 32  1  0  0  0  0
  5  6  1  0  0  0  0
  5  7  1  0  0  0  0
  6 33  1  0  0  0  0
  7  8  2  0  0  0  0
  7  9  2  0  0  0  0
  7 10  1  0  0  0  0
 10 15  1  0  0  0  0
 10 11  1  0  0  0  0
 11 12  1  0  0  0  0
 11 34  1  0  0  0  0
 11 35  1  0  0  0  0
 12 13  1  0  0  0  0
 12 36  1  0  0  0  0
 12 37  1  0  0  0  0
 13 14  1  0  0  0  0
 14 15  1  0  0  0  0
 14 38  1  0  0  0  0
 14 39  1  0  0  0  0
 15 40  1  0  0  0  0
 15 41  1  0  0  0  0
 16 17  1  0  0  0  0
 16 42  1  0  0  0  0
 17 18  2  0  0  0  0
 17 19  1  0  0  0  0
 19 20  1  0  0  0  0
 19 43  1  0  0  0  0
 19 44  1  0  0  0  0
 20 21  1  0  0  0  0
 21 26  2  0  0  0  0
 21 22  1  0  0  0  0
 22 23  2  0  0  0  0
 22 45  1  0  0  0  0
 23 24  1  0  0  0  0
 23 46  1  0  0  0  0
 24 25  2  0  0  0  0
 24 28  1  0  0  0  0
 25 26  1  0  0  0  0
 25 47  1  0  0  0  0
 26 27  1  0  0  0  0
 28 29  2  0  0  0  0
 28 48  1  0  0  0  0
M  END
$$$$
ZINC64476153
 OpenBabel01252620473D

 42 43  0  0  0  0  0  0  0  0999 V2000
   -0.0178    1.4608    0.0101 C   0  0  0  0  0  0  0  0  0  0  0  0
    0.0021   -0.0041    0.0020 N   0  0  0  0  0  0  0  0  0  0  0  0
    0.7421   -0.8289    1.2326 S   0  0  0  0  0  0  0  0  0  0  0  0
    0.5703   -2.2120    0.9554 O   0  0  0  0  0  0  0  0  0  0  0  0
    2.0239   -0.2396    1.4033 O   0  0  0  0  0  0  0  0  0  0  0  0
   -0.1663   -0.4937    2.7047 C   0  0  0  0  0  0  0  0  0  0  0  0
    0.1724    0.5893    3.4945 C   0  0  0  0  0  0  0  0  0  0  0  0
   -0.5402    0.8522    4.6492 C   0  0  0  0  0  0  0  0  0  0  0  0
   -1.5920    0.0325    5.0142 C   0  0  0  0  0  0  0  0  0  0  0  0
   -1.9313   -1.0496    4.2241 C   0  0  0  0  0  0  0  0  0  0  0  0
   -1.2212   -1.3101    3.0668 C   0  0  0  0  0  0  0  0  0  0  0  0
   -3.2714   -2.0946    4.6895 S   0  0  0  0  0  0  0  0  0  0  0  0
   -3.0392   -3.3526    4.0710 O   0  0  0  0  0  0  0  0  0  0  0  0
   -3.4271   -1.9538    6.0949 O   0  0  0  0  0  0  0  0  0  0  0  0
   -4.6409   -1.4723    3.9969 N   0  0  0  0  0  2  0  0  0  0  0  0
   -5.8747   -2.1029    4.1964 C   0  0  0  0  0  0  0  0  0  0  0  0
   -5.9513   -3.2424    4.9764 C   0  0  0  0  0  0  0  0  0  0  0  0
   -7.1848   -3.8684    5.1732 C   0  0  0  0  0  0  0  0  0  0  0  0
   -8.3350   -3.3407    4.5815 C   0  0  0  0  0  0  0  0  0  0  0  0
   -8.2525   -2.2051    3.8048 C   0  0  0  0  0  0  0  0  0  0  0  0
   -7.0290   -1.5788    3.6129 C   0  0  0  0  0  0  0  0  0  0  0  0
   -6.9540   -0.4569    2.8512 O   0  0  0  0  0  0  0  0  0  0  0  0
   -8.1740    0.0251    2.2843 C   0  0  0  0  0  0  0  0  0  0  0  0
   -7.2724   -5.0851    6.0043 C   0  0  0  0  0  0  0  0  0  0  0  0
   -6.2706   -5.5435    6.5185 O   0  0  0  0  0  0  0  0  0  0  0  0
   -8.4630   -5.6878    6.1933 N   0  0  0  0  0  0  0  0  0  0  0  0
    1.0048    1.8381    0.0023 H   0  0  0  0  0  0  0  0  0  0  0  0
   -0.5450    1.8219   -0.8730 H   0  0  0  0  0  0  0  0  0  0  0  0
   -0.5280    1.8123    0.9069 H   0  0  0  0  0  0  0  0  0  0  0  0
   -0.4183   -0.4908   -0.7241 H   0  0  0  0  0  0  0  0  0  0  0  0
    0.9941    1.2296    3.2095 H   0  0  0  0  0  0  0  0  0  0  0  0
   -0.2751    1.6978    5.2666 H   0  0  0  0  0  0  0  0  0  0  0  0
   -2.1484    0.2375    5.9169 H   0  0  0  0  0  0  0  0  0  0  0  0
   -1.4886   -2.1535    2.4474 H   0  0  0  0  0  0  0  0  0  0  0  0
   -5.0598   -3.6476    5.4320 H   0  0  0  0  0  0  0  0  0  0  0  0
   -9.2895   -3.8231    4.7324 H   0  0  0  0  0  0  0  0  0  0  0  0
   -9.1429   -1.7991    3.3479 H   0  0  0  0  0  0  0  0  0  0  0  0
   -7.9735    0.9239    1.7011 H   0  0  0  0  0  0  0  0  0  0  0  0
   -8.6012   -0.7405    1.6367 H   0  0  0  0  0  0  0  0  0  0  0  0
   -8.8780    0.2597    3.0828 H   0  0  0  0  0  0  0  0  0  0  0  0
   -9.2623   -5.3221    5.7831 H   0  0  0  0  0  0  0  0  0  0  0  0
   -8.5206   -6.4874    6.7395 H   0  0  0  0  0  0  0  0  0  0  0  0
  1  2  1  0  0  0  0
  1 27  1  0  0  0  0
  1 28  1  0  0  0  0
  1 29  1  0  0  0  0
  2  3  1  0  0  0  0
  2 30  1  0  0  0  0
  3  4  2  0  0  0  0
  3  5  2  0  0  0  0
  3  6  1  0  0  0  0
  6 11  2  0  0  0  0
  6  7  1  0  0  0  0
  7  8  2  0  0  0  0
  7 31  1  0  0  0  0
  8  9  1  0  0  0  0
  8 32  1  0  0  0  0
  9 10  2  0  0  0  0
  9 33  1  0  0  0  0
 10 11  1  0  0  0  0
 10 12  1  0  0  0  0
 11 34  1  0  0  0  0
 12 13  2  0  0  0  0
 12 14  2  0  0  0  0
 12 15  1  0  0  0  0
 15 16  1  0  0  0  0
 16 21  2  0  0  0  0
 16 17  1  0  0  0  0
 17 18  2  0  0  0  0
 17 35  1  0  0  0  0
 18 19  1  0  0  0  0
 18 24  1  0  0  0  0
 19 20  2  0  0  0  0
 19 36  1  0  0  0  0
 20 21  1  0  0  0  0
 20 37  1  0  0  0  0
 21 22  1  0  0  0  0
 22 23  1  0  0  0  0
 23 38  1  0  0  0  0
 23 39  1  0  0  0  0
 23 40  1  0  0  0  0
 24 25  2  0  0  0  0
 24 26  1  0  0  0  0
 26 41  1  0  0  0  0
 26 42  1  0  0  0  0
M  END
$$$$
ZINC40955877
 OpenBabel01252620473D

 35 36  0  0  0  0  0  0  0  0999 V2000
   -0.0184    1.5028    0.0103 C   0  0  0  0  0  0  0  0  0  0  0  0
    0.0021   -0.0041    0.0020 C   0  0  0  0  0  0  0  0  0  0  0  0
    0.0057   -0.6888   -1.1991 C   0  0  0  0  0  0  0  0  0  0  0  0
    0.0245   -2.0707   -1.2067 C   0  0  0  0  0  0  0  0  0  0  0  0
    0.0400   -2.7685   -0.0132 C   0  0  0  0  0  0  0  0  0  0  0  0
    0.0373   -2.0840    1.1875 C   0  0  0  0  0  0  0  0  0  0  0  0
    0.0229   -0.7015    1.1951 C   0  0  0  0  0  0  0  0  0  0  0  0
    0.0566   -2.9732    2.7086 S   0  0  2  0  0  0  0  0  0  0  0  0
    0.7515   -4.1728    2.3967 O   0  0  0  0  0  0  0  0  0  0  0  0
   -1.6906   -3.3498    3.0189 C   0  0  0  0  0  0  0  0  0  0  0  0
   -1.8172   -4.1195    4.3083 C   0  0  0  0  0  0  0  0  0  0  0  0
   -1.9924   -3.5778    5.5227 C   0  0  0  0  0  0  0  0  0  0  0  0
   -2.0596   -4.7074    6.4630 C   0  0  0  0  0  0  0  0  0  0  0  0
   -1.9146   -5.8305    5.6978 C   0  0  0  0  0  0  0  0  0  0  0  0
   -1.7783   -5.4563    4.4231 O   0  0  0  0  0  0  0  0  0  0  0  0
   -1.9151   -7.2495    6.2052 C   0  0  0  0  0  0  0  0  0  0  0  0
   -2.2439   -4.6418    7.9195 C   0  0  0  0  0  0  0  0  0  0  0  0
   -2.3613   -3.5569    8.4731 O   0  0  0  0  0  0  0  0  0  0  0  0
   -2.2800   -5.6722    8.5787 O   0  0  0  0  0  1  0  0  0  0  0  0
    0.0595   -4.2753   -0.0215 C   0  0  0  0  0  0  0  0  0  0  0  0
    1.0042    1.8801    0.0026 H   0  0  0  0  0  0  0  0  0  0  0  0
   -0.5455    1.8639   -0.8728 H   0  0  0  0  0  0  0  0  0  0  0  0
   -0.5286    1.8543    0.9071 H   0  0  0  0  0  0  0  0  0  0  0  0
   -0.0064   -0.1437   -2.1314 H   0  0  0  0  0  0  0  0  0  0  0  0
    0.0266   -2.6056   -2.1449 H   0  0  0  0  0  0  0  0  0  0  0  0
    0.0246   -0.1666    2.1333 H   0  0  0  0  0  0  0  0  0  0  0  0
   -2.2549   -2.4202    3.0938 H   0  0  0  0  0  0  0  0  0  0  0  0
   -2.0845   -3.9489    2.1980 H   0  0  0  0  0  0  0  0  0  0  0  0
   -2.0682   -2.5273    5.7615 H   0  0  0  0  0  0  0  0  0  0  0  0
   -2.9340   -7.6367    6.2007 H   0  0  0  0  0  0  0  0  0  0  0  0
   -1.2892   -7.8662    5.5602 H   0  0  0  0  0  0  0  0  0  0  0  0
   -1.5224   -7.2720    7.2218 H   0  0  0  0  0  0  0  0  0  0  0  0
    1.0917   -4.6253   -0.0291 H   0  0  0  0  0  0  0  0  0  0  0  0
   -0.4447   -4.6501    0.8693 H   0  0  0  0  0  0  0  0  0  0  0  0
   -0.4546   -4.6404   -0.9106 H   0  0  0  0  0  0  0  0  0  0  0  0
  1  2  1  0  0  0  0
  1 21  1  0  0  0  0
  1 22  1  0  0  0  0
  1 23  1  0  0  0  0
  2  7  2  0  0  0  0
  2  3  1  0  0  0  0
  3  4  2  0  0  0  0
  3 24  1  0  0  0  0
  4  5  1  0  0  0  0
  4 25  1  0  0  0  0
  5  6  2  0  0  0  0
  5 20  1  0  0  0  0
  6  7  1  0  0  0  0
  6  8  1  0  0  0  0
  7 26  1  0  0  0  0
  8  9  2  6  0  0  0
  8 10  1  0  0  0  0
 10 11  1  0  0  0  0
 10 27  1  0  0  0  0
 10 28  1  0  0  0  0
 11 15  1  0  0  0  0
 11 12  2  0  0  0  0
 12 13  1  0  0  0  0
 12 29  1  0  0  0  0
 13 14  2  0  0  0  0
 13 17  1  0  0  0  0
 14 15  1  0  0  0  0
 14 16  1  0  0  0  0
 16 30  1  0  0  0  0
 16 31  1  0  0  0  0
 16 32  1  0  0  0  0
 17 18  2  0  0  0  0
 17 19  1  0  0  0  0
 20 33  1  0  0  0  0
 20 34  1  0  0  0  0
 20 35  1  0  0  0  0
M  END
$$$$
ZINC50980346
 OpenBabel01252620473D

 37 38  0  0  0  0  0  0  0  0999 V2000
   -0.0187    1.5258    0.0104 C   0  0  0  0  0  0  0  0  0  0  0  0
    0.0021   -0.0041    0.0020 C   0  0  0  0  0  0  0  0  0  0  0  0
    0.7182   -0.4975   -1.2568 C   0  0  0  0  0  0  0  0  0  0  0  0
    0.7386   -2.0043   -1.2651 C   0  0  0  0  0  0  0  0  0  0  0  0
   -0.1275   -2.8605   -1.7722 N   0  0  0  0  0  0  0  0  0  0  0  0
    0.0373   -4.1085   -1.6952 N   0  0  0  0  0  0  0  0  0  0  0  0
    1.1007   -4.6373   -1.0944 C   0  0  0  0  0  0  0  0  0  0  0  0
    1.9493   -3.1413   -0.5964 S   0  0  0  0  0  0  0  0  0  0  0  0
    1.4470   -5.9445   -0.9137 N   0  0  0  0  0  0  0  0  0  0  0  0
    0.6766   -6.8905   -1.3670 C   0  0  0  0  0  0  0  0  0  0  0  0
   -0.4636   -6.5787   -2.0151 O   0  5  0  0  0  0  0  0  0  0  0  0
    1.0591   -8.3344   -1.1674 C   0  0  0  0  0  0  0  0  0  0  0  0
    2.3860   -8.4103   -0.4094 C   0  0  0  0  0  0  0  0  0  0  0  0
    2.7685   -9.8542   -0.2097 C   0  0  0  0  0  0  0  0  0  0  0  0
    2.0505  -10.7358   -0.6322 O   0  0  0  0  0  0  0  0  0  0  0  0
    4.0104  -10.1938    0.4962 C   0  0  0  0  0  0  0  0  0  0  0  0
    4.8391   -9.1789    0.9904 C   0  0  0  0  0  0  0  0  0  0  0  0
    6.0015   -9.5040    1.6516 C   0  0  0  0  0  0  0  0  0  0  0  0
    6.3552  -10.8347    1.8301 C   0  0  0  0  0  0  0  0  0  0  0  0
    5.5423  -11.8461    1.3449 C   0  0  0  0  0  0  0  0  0  0  0  0
    4.3698  -11.5360    0.6839 C   0  0  0  0  0  0  0  0  0  0  0  0
    3.5745  -12.5225    0.2153 F   0  0  0  0  0  0  0  0  0  0  0  0
    7.4984  -11.1448    2.4799 F   0  0  0  0  0  0  0  0  0  0  0  0
    1.0039    1.9031    0.0027 H   0  0  0  0  0  0  0  0  0  0  0  0
   -0.5459    1.8868   -0.8726 H   0  0  0  0  0  0  0  0  0  0  0  0
   -0.5289    1.8773    0.9072 H   0  0  0  0  0  0  0  0  0  0  0  0
    0.5293   -0.3651    0.8851 H   0  0  0  0  0  0  0  0  0  0  0  0
   -1.0205   -0.3814    0.0098 H   0  0  0  0  0  0  0  0  0  0  0  0
    0.1910   -0.1364   -2.1398 H   0  0  0  0  0  0  0  0  0  0  0  0
    1.7408   -0.1202   -1.2645 H   0  0  0  0  0  0  0  0  0  0  0  0
    0.2830   -8.8398   -0.5927 H   0  0  0  0  0  0  0  0  0  0  0  0
    1.1667   -8.8192   -2.1377 H   0  0  0  0  0  0  0  0  0  0  0  0
    3.1622   -7.9049   -0.9840 H   0  0  0  0  0  0  0  0  0  0  0  0
    2.2784   -7.9255    0.5609 H   0  0  0  0  0  0  0  0  0  0  0  0
    4.5666   -8.1429    0.8527 H   0  0  0  0  0  0  0  0  0  0  0  0
    6.6409   -8.7214    2.0326 H   0  0  0  0  0  0  0  0  0  0  0  0
    5.8240  -12.8790    1.4871 H   0  0  0  0  0  0  0  0  0  0  0  0
  1  2  1  0  0  0  0
  1 24  1  0  0  0  0
  1 25  1  0  0  0  0
  1 26  1  0  0  0  0
  2  3  1  0  0  0  0
  2 27  1  0  0  0  0
  2 28  1  0  0  0  0
  3  4  1  0  0  0  0
  3 29  1  0  0  0  0
  3 30  1  0  0  0  0
  4  8  1  0  0  0  0
  4  5  2  0  0  0  0
  5  6  1  0  0  0  0
  6  7  2  0  0  0  0
  7  8  1  0  0  0  0
  7  9  1  0  0  0  0
  9 10  2  0  0  0  0
 10 11  1  0  0  0  0
 10 12  1  0  0  0  0
 12 13  1  0  0  0  0
 12 31  1  0  0  0  0
 12 32  1  0  0  0  0
 13 14  1  0  0  0  0
 13 33  1  0  0  0  0
 13 34  1  0  0  0  0
 14 15  2  0  0  0  0
 14 16  1  0  0  0  0
 16 21  2  0  0  0  0
 16 17  1  0  0  0  0
 17 18  2  0  0  0  0
 17 35  1  0  0  0  0
 18 19  1  0  0  0  0
 18 36  1  0  0  0  0
 19 20  2  0  0  0  0
 19 23  1  0  0  0  0
 20 21  1  0  0  0  0
 20 37  1  0  0  0  0
 21 22  1  0  0  0  0
M  CHG  1  11  -1
M  END
$$$$
ZINC04945411
 OpenBabel01252620473D

 32 34  0  0  0  0  0  0  0  0999 V2000
   -0.0169    1.3952    0.0097 C   0  0  0  0  0  0  0  0  0  0  0  0
    1.1683    2.0970    0.0022 C   0  0  0  0  0  0  0  0  0  0  0  0
    2.3789    1.4198   -0.0130 C   0  0  0  0  0  0  0  0  0  0  0  0
    2.4047    0.0329   -0.0212 C   0  0  0  0  0  0  0  0  0  0  0  0
    1.2267   -0.6810   -0.0142 C   0  0  0  0  0  0  0  0  0  0  0  0
    0.0021   -0.0041    0.0020 C   0  0  0  0  0  0  0  0  0  0  0  0
   -1.2591   -0.7596    0.0105 C   0  0  0  0  0  0  0  0  0  0  0  0
   -2.3189   -0.1702    0.0242 O   0  0  0  0  0  0  0  0  0  0  0  0
   -1.2348   -2.2664    0.0022 C   0  0  0  0  0  0  0  0  0  0  0  0
   -2.9351   -2.8985    0.0157 S   0  0  0  0  0  0  0  0  0  0  0  0
   -2.7389   -4.6495    0.0043 C   0  0  0  0  0  0  0  0  0  0  0  0
   -3.7388   -5.6149    0.0034 C   0  0  0  0  0  0  0  0  0  0  0  0
   -3.3244   -7.0076   -0.0077 C   0  0  0  0  0  0  0  0  0  0  0  0
   -1.9416   -7.1715   -0.0160 C   0  0  0  0  0  0  0  0  0  0  0  0
   -1.3041   -5.5186   -0.0152 S   0  0  0  0  0  0  0  0  0  0  0  0
   -1.3521   -8.4360   -0.0272 C   0  0  0  0  0  0  0  0  0  0  0  0
   -2.1720   -9.5557   -0.0301 C   0  0  0  0  0  0  0  0  0  0  0  0
   -3.5571   -9.3787   -0.0216 C   0  0  0  0  0  0  0  0  0  0  0  0
   -4.2842  -10.3602   -0.0237 O   0  0  0  0  0  0  0  0  0  0  0  0
   -4.1073   -8.1558   -0.0109 N   0  0  0  0  0  0  0  0  0  0  0  0
   -5.0735   -8.0707   -0.0053 H   0  0  0  0  0  0  0  0  0  0  0  0
   -0.0036   -8.5684   -0.0356 O   0  5  0  0  0  0  0  0  0  0  0  0
   -5.1238   -5.2511    0.0135 C   0  0  0  0  0  0  0  0  0  0  0  0
   -6.2225   -4.9625    0.0215 N   0  0  0  0  0  0  0  0  0  0  0  0
    3.5378    2.1141   -0.0204 F   0  0  0  0  0  0  0  0  0  0  0  0
   -0.9587    1.9236    0.0260 H   0  0  0  0  0  0  0  0  0  0  0  0
    1.1551    3.1769    0.0077 H   0  0  0  0  0  0  0  0  0  0  0  0
    3.3506   -0.4883   -0.0334 H   0  0  0  0  0  0  0  0  0  0  0  0
    1.2482   -1.7608   -0.0213 H   0  0  0  0  0  0  0  0  0  0  0  0
   -0.7241   -2.6166   -0.8948 H   0  0  0  0  0  0  0  0  0  0  0  0
   -0.7064   -2.6261    0.8850 H   0  0  0  0  0  0  0  0  0  0  0  0
   -1.7457  -10.5480   -0.0390 H   0  0  0  0  0  0  0  0  0  0  0  0
  1  6  2  0  0  0  0
  1  2  1  0  0  0  0
  1 26  1  0  0  0  0
  2  3  2  0  0  0  0
  2 27  1  0  0  0  0
  3  4  1  0  0  0  0
  3 25  1  0  0  0  0
  4  5  2  0  0  0  0
  4 28  1  0  0  0  0
  5  6  1  0  0  0  0
  5 29  1  0  0  0  0
  6  7  1  0  0  0  0
  7  8  2  0  0  0  0
  7  9  1  0  0  0  0
  9 10  1  0  0  0  0
  9 30  1  0  0  0  0
  9 31  1  0  0  0  0
 10 11  1  0  0  0  0
 11 15  1  0  0  0  0
 11 12  2  0  0  0  0
 12 13  1  0  0  0  0
 12 23  1  0  0  0  0
 13 20  1  0  0  0  0
 13 14  2  0  0  0  0
 14 15  1  0  0  0  0
 14 16  1  0  0  0  0
 16 17  2  0  0  0  0
 16 22  1  0  0  0  0
 17 18  1  0  0  0  0
 17 32  1  0  0  0  0
 18 19  2  0  0  0  0
 18 20  1  0  0  0  0
 20 21  1  0  0  0  0
 23 24  3  0  0  0  0
M  CHG  1  22  -1
M  END
$$$$
ZINC44244847
 OpenBabel01252620473D

 32 33  0  0  0  0  0  0  0  0999 V2000
   -0.0178    1.4608    0.0101 C   0  0  0  0  0  0  0  0  0  0  0  0
    0.0021   -0.0041    0.0020 N   0  0  0  0  0  0  0  0  0  0  0  0
   -1.1558   -0.6938    0.0094 C   0  0  0  0  0  0  0  0  0  0  0  0
   -2.2170   -0.1002    0.0227 O   0  0  0  0  0  0  0  0  0  0  0  0
   -1.1358   -2.1679    0.0013 C   0  0  0  0  0  0  0  0  0  0  0  0
    0.0812   -2.8545   -0.0083 C   0  0  0  0  0  0  0  0  0  0  0  0
    0.0931   -4.2319   -0.0159 C   0  0  0  0  0  0  0  0  0  0  0  0
   -1.0969   -4.9427   -0.0146 C   0  0  0  0  0  0  0  0  0  0  0  0
   -2.3066   -4.2796   -0.0057 C   0  0  0  0  0  0  0  0  0  0  0  0
   -2.3390   -2.8905    0.0089 C   0  0  0  0  0  0  0  0  0  0  0  0
   -3.5554   -2.2207    0.0241 N   0  0  0  0  0  2  0  0  0  0  0  0
   -4.9724   -3.0776    0.0330 S   0  0  0  0  0  0  0  0  0  0  0  0
   -5.0468   -3.7524   -1.2153 O   0  0  0  0  0  0  0  0  0  0  0  0
   -5.0230   -3.7658    1.2752 O   0  0  0  0  0  0  0  0  0  0  0  0
   -6.2891   -1.9069    0.0519 C   0  0  0  0  0  0  0  0  0  0  0  0
   -6.7984   -1.4427    1.2551 C   0  0  0  0  0  0  0  0  0  0  0  0
   -7.8350   -0.5215    1.2215 C   0  0  0  0  0  0  0  0  0  0  0  0
   -8.3222   -0.1001   -0.0025 C   0  0  0  0  0  0  0  0  0  0  0  0
   -7.8127   -0.5638   -1.1267 N   0  0  0  0  0  0  0  0  0  0  0  0
   -6.8232   -1.4357   -1.1322 C   0  0  0  0  0  0  0  0  0  0  0  0
   -8.5728    0.1489    2.8284 Br  0  0  0  0  0  0  0  0  0  0  0  0
    1.0048    1.8381    0.0023 H   0  0  0  0  0  0  0  0  0  0  0  0
   -0.5450    1.8219   -0.8730 H   0  0  0  0  0  0  0  0  0  0  0  0
   -0.5280    1.8123    0.9069 H   0  0  0  0  0  0  0  0  0  0  0  0
    0.8486   -0.4776   -0.0086 H   0  0  0  0  0  0  0  0  0  0  0  0
    1.0114   -2.3058   -0.0100 H   0  0  0  0  0  0  0  0  0  0  0  0
    1.0347   -4.7609   -0.0232 H   0  0  0  0  0  0  0  0  0  0  0  0
   -1.0769   -6.0225   -0.0209 H   0  0  0  0  0  0  0  0  0  0  0  0
   -3.2294   -4.8408   -0.0051 H   0  0  0  0  0  0  0  0  0  0  0  0
   -6.3978   -1.7902    2.1959 H   0  0  0  0  0  0  0  0  0  0  0  0
   -9.1294    0.6166   -0.0377 H   0  0  0  0  0  0  0  0  0  0  0  0
   -6.4289   -1.7892   -2.0735 H   0  0  0  0  0  0  0  0  0  0  0  0
  1  2  1  0  0  0  0
  1 22  1  0  0  0  0
  1 23  1  0  0  0  0
  1 24  1  0  0  0  0
  2  3  1  0  0  0  0
  2 25  1  0  0  0  0
  3  4  2  0  0  0  0
  3  5  1  0  0  0  0
  5 10  2  0  0  0  0
  5  6  1  0  0  0  0
  6  7  2  0  0  0  0
  6 26  1  0  0  0  0
  7  8  1  0  0  0  0
  7 27  1  0  0  0  0
  8  9  2  0  0  0  0
  8 28  1  0  0  0  0
  9 10  1  0  0  0  0
  9 29  1  0  0  0  0
 10 11  1  0  0  0  0
 11 12  1  0  0  0  0
 12 13  2  0  0  0  0
 12 14  2  0  0  0  0
 12 15  1  0  0  0  0
 15 20  2  0  0  0  0
 15 16  1  0  0  0  0
 16 17  2  0  0  0  0
 16 30  1  0  0  0  0
 17 18  1  0  0  0  0
 17 21  1  0  0  0  0
 18 19  2  0  0  0  0
 18 31  1  0  0  0  0
 19 20  1  0  0  0  0
 20 32  1  0  0  0  0
M  END
$$$$
ZINC54634246
 OpenBabel01252620473D

 32 34  0  0  1  0  0  0  0  0999 V2000
    0.0492    1.3947   -0.0866 C   0  0  0  0  0  0  0  0  0  0  0  0
    1.2419    2.0939   -0.0943 C   0  0  0  0  0  0  0  0  0  0  0  0
    2.4322    1.3892   -0.0875 C   0  0  0  0  0  0  0  0  0  0  0  0
    2.4188    0.0138   -0.0694 C   0  0  0  0  0  0  0  0  0  0  0  0
    1.2373   -0.7091   -0.0461 C   0  0  0  0  0  0  0  0  0  0  0  0
    0.0429    0.0193   -0.0640 C   0  0  0  0  0  0  0  0  0  0  0  0
    1.3699   -2.2113    0.0158 C   0  0  2  0  0  0  0  0  0  0  0  0
    1.2191   -2.5395    1.0442 H   0  0  0  0  0  0  0  0  0  0  0  0
    2.7606   -2.6833   -0.4653 C   0  0  0  0  0  0  0  0  0  0  0  0
    3.7426   -1.1755   -0.0774 S   0  0  0  0  0  0  0  0  0  0  0  0
    4.5797   -0.8171   -1.1683 O   0  0  0  0  0  0  0  0  0  0  0  0
    4.2358   -1.2164    1.2546 O   0  0  0  0  0  0  0  0  0  0  0  0
    0.2963   -2.8441   -0.8719 C   0  0  2  0  0  0  0  0  0  0  0  0
    0.5818   -4.3485   -1.0780 C   0  0  0  0  0  0  0  0  0  0  0  0
    0.7790   -4.4875   -2.6039 C   0  0  0  0  0  0  0  0  0  0  0  0
    0.0682   -3.3657   -3.1715 O   0  0  0  0  0  0  0  0  0  0  0  0
    0.3547   -2.2521   -2.2975 C   0  0  0  0  0  0  0  0  0  0  0  0
   -1.0708   -2.6406   -0.2712 C   0  0  0  0  0  0  0  0  0  0  0  0
   -2.0480   -2.5539   -0.9952 O   0  0  0  0  0  0  0  0  0  0  0  0
   -1.1996   -2.5628    0.9387 O   0  0  0  0  0  1  0  0  0  0  0  0
   -0.8866    1.9337   -0.0940 H   0  0  0  0  0  0  0  0  0  0  0  0
    1.2442    3.1739   -0.1057 H   0  0  0  0  0  0  0  0  0  0  0  0
    3.3731    1.9194   -0.0968 H   0  0  0  0  0  0  0  0  0  0  0  0
   -0.9001   -0.5072   -0.0600 H   0  0  0  0  0  0  0  0  0  0  0  0
    3.1089   -3.5429    0.1072 H   0  0  0  0  0  0  0  0  0  0  0  0
    2.7612   -2.8942   -1.5347 H   0  0  0  0  0  0  0  0  0  0  0  0
    1.4879   -4.6415   -0.5476 H   0  0  0  0  0  0  0  0  0  0  0  0
   -0.2665   -4.9472   -0.7464 H   0  0  0  0  0  0  0  0  0  0  0  0
    1.8380   -4.4327   -2.8562 H   0  0  0  0  0  0  0  0  0  0  0  0
    0.3518   -5.4257   -2.9578 H   0  0  0  0  0  0  0  0  0  0  0  0
   -0.3985   -1.4732   -2.4161 H   0  0  0  0  0  0  0  0  0  0  0  0
    1.3486   -1.8545   -2.5029 H   0  0  0  0  0  0  0  0  0  0  0  0
  1  6  2  0  0  0  0
  1  2  1  0  0  0  0
  1 21  1  0  0  0  0
  2  3  2  0  0  0  0
  2 22  1  0  0  0  0
  3  4  1  0  0  0  0
  3 23  1  0  0  0  0
  4 10  1  0  0  0  0
  4  5  2  0  0  0  0
  5  6  1  0  0  0  0
  5  7  1  0  0  0  0
  6 24  1  0  0  0  0
  7  8  1  1  0  0  0
  7  9  1  0  0  0  0
  7 13  1  0  0  0  0
  9 10  1  0  0  0  0
  9 25  1  0  0  0  0
  9 26  1  0  0  0  0
 10 11  2  0  0  0  0
 10 12  2  0  0  0  0
 13 17  1  0  0  0  0
 13 14  1  0  0  0  0
 13 18  1  1  0  0  0
 14 15  1  0  0  0  0
 14 27  1  0  0  0  0
 14 28  1  0  0  0  0
 15 16  1  0  0  0  0
 15 29  1  0  0  0  0
 15 30  1  0  0  0  0
 16 17  1  0  0  0  0
 17 31  1  0  0  0  0
 17 32  1  0  0  0  0
 18 19  2  0  0  0  0
 18 20  1  0  0  0  0
M  END
$$$$
ZINC33766318
 OpenBabel01252620473D

 68 71  0  0  1  0  0  0  0  0999 V2000
    0.4712   -2.7217    1.6220 C   0  0  0  0  0  0  0  0  0  0  0  0
    0.0415   -1.2969    1.2663 C   0  0  0  0  0  0  0  0  0  0  0  0
    1.2004   -0.4950    1.0298 O   0  0  0  0  0  0  0  0  0  0  0  0
    0.9976    0.8290    0.7949 C   0  0  0  0  0  0  0  0  0  0  0  0
   -0.2914    1.3244    0.6803 C   0  0  0  0  0  0  0  0  0  0  0  0
   -0.4959    2.6707    0.4420 C   0  0  0  0  0  0  0  0  0  0  0  0
    0.5835    3.5264    0.3227 C   0  0  0  0  0  0  0  0  0  0  0  0
    1.8721    3.0377    0.4308 C   0  0  0  0  0  0  0  0  0  0  0  0
    2.0841    1.6894    0.6697 C   0  0  0  0  0  0  0  0  0  0  0  0
    3.3510    1.2080    0.7809 O   0  0  0  0  0  0  0  0  0  0  0  0
    4.4173    2.1490    0.6407 C   0  0  0  0  0  0  0  0  0  0  0  0
    5.7376    1.4384    0.7928 C   0  0  0  0  0  0  0  0  0  0  0  0
    6.7150    1.6864   -0.0433 C   0  0  0  0  0  0  0  0  0  0  0  0
   -1.8984    3.2076    0.3172 C   0  0  2  0  0  0  0  0  0  0  0  0
   -1.8451    4.2378   -0.0647 H   0  0  0  0  0  0  0  0  0  0  0  0
   -2.6009    3.1357    1.6532 C   0  0  0  0  0  0  0  0  0  0  0  0
   -2.2242    3.7653    2.8239 C   0  0  0  0  0  0  0  0  0  0  0  0
   -1.1063    4.7212    2.8180 C   0  0  0  0  0  0  0  0  0  0  0  0
   -0.0832    4.6115    3.7677 C   0  0  0  0  0  0  0  0  0  0  0  0
    0.9630    5.5053    3.7549 C   0  0  0  0  0  0  0  0  0  0  0  0
    1.0000    6.5226    2.8072 C   0  0  0  0  0  0  0  0  0  0  0  0
   -0.0164    6.6391    1.8650 C   0  0  0  0  0  0  0  0  0  0  0  0
   -1.0645    5.7474    1.8663 C   0  0  0  0  0  0  0  0  0  0  0  0
    2.0312    7.4046    2.8020 O   0  0  0  0  0  0  0  0  0  0  0  0
    3.0968    7.1624    3.7228 C   0  0  0  0  0  0  0  0  0  0  0  0
   -2.8823    3.5032    3.9733 O   0  0  0  0  0  0  0  0  0  0  0  0
   -3.7129    2.3003    1.4640 C   0  0  0  0  0  0  0  0  0  0  0  0
   -4.5304    1.9961    2.3140 O   0  5  0  0  0  0  0  0  0  0  0  0
   -3.7202    1.8507    0.0457 C   0  0  0  0  0  0  0  0  0  0  0  0
   -4.5517    1.1160   -0.4471 O   0  0  0  0  0  0  0  0  0  0  0  0
   -2.6729    2.3778   -0.6104 N   0  0  0  0  0  0  0  0  0  0  0  0
   -2.3550    2.1572   -2.0234 C   0  0  0  0  0  0  0  0  0  0  0  0
   -1.4457    0.9340   -2.1567 C   0  0  0  0  0  0  0  0  0  0  0  0
   -1.1138    0.7036   -3.6323 C   0  0  0  0  0  0  0  0  0  0  0  0
   -0.2430   -0.4676   -3.7599 N   0  0  0  0  0  0  0  0  0  0  0  0
   -0.6460   -1.7648   -3.9287 C   0  0  0  0  0  0  0  0  0  0  0  0
    0.4710   -2.5137   -3.9991 C   0  0  0  0  0  0  0  0  0  0  0  0
    1.5273   -1.6962   -3.8766 N   0  0  0  0  0  0  0  0  0  0  0  0
    1.1073   -0.4683   -3.7388 C   0  0  0  0  0  0  0  0  0  0  0  0
   -0.4209   -3.3390    1.8040 H   0  0  0  0  0  0  0  0  0  0  0  0
    1.0941   -2.7013    2.5284 H   0  0  0  0  0  0  0  0  0  0  0  0
    1.0491   -3.1491    0.7893 H   0  0  0  0  0  0  0  0  0  0  0  0
   -0.5815   -1.3173    0.3599 H   0  0  0  0  0  0  0  0  0  0  0  0
   -0.5365   -0.8696    2.0989 H   0  0  0  0  0  0  0  0  0  0  0  0
   -1.1364    0.6587    0.7769 H   0  0  0  0  0  0  0  0  0  0  0  0
    0.4196    4.5783    0.1406 H   0  0  0  0  0  0  0  0  0  0  0  0
    2.7136    3.7077    0.3335 H   0  0  0  0  0  0  0  0  0  0  0  0
    4.3651    2.6168   -0.3535 H   0  0  0  0  0  0  0  0  0  0  0  0
    4.3266    2.9241    1.4159 H   0  0  0  0  0  0  0  0  0  0  0  0
    5.8805    0.7116    1.6060 H   0  0  0  0  0  0  0  0  0  0  0  0
    7.6787    1.1678    0.0678 H   0  0  0  0  0  0  0  0  0  0  0  0
    6.5721    2.4133   -0.8565 H   0  0  0  0  0  0  0  0  0  0  0  0
   -0.1134    3.8246    4.5068 H   0  0  0  0  0  0  0  0  0  0  0  0
    1.7545    5.4193    4.4846 H   0  0  0  0  0  0  0  0  0  0  0  0
    0.0168    7.4310    1.1314 H   0  0  0  0  0  0  0  0  0  0  0  0
   -1.8536    5.8392    1.1347 H   0  0  0  0  0  0  0  0  0  0  0  0
    3.8607    7.9464    3.6140 H   0  0  0  0  0  0  0  0  0  0  0  0
    3.5465    6.1807    3.5131 H   0  0  0  0  0  0  0  0  0  0  0  0
    2.7034    7.1737    4.7500 H   0  0  0  0  0  0  0  0  0  0  0  0
   -1.8405    3.0422   -2.4260 H   0  0  0  0  0  0  0  0  0  0  0  0
   -3.2847    1.9860   -2.5859 H   0  0  0  0  0  0  0  0  0  0  0  0
   -0.5160    1.1052   -1.5941 H   0  0  0  0  0  0  0  0  0  0  0  0
   -1.9601    0.0490   -1.7540 H   0  0  0  0  0  0  0  0  0  0  0  0
   -2.0435    0.5324   -4.1948 H   0  0  0  0  0  0  0  0  0  0  0  0
   -0.5994    1.5886   -4.0349 H   0  0  0  0  0  0  0  0  0  0  0  0
   -1.5441   -2.1986   -3.9999 H   0  0  0  0  0  0  0  0  0  0  0  0
    0.4023   -3.5036   -4.1231 H   0  0  0  0  0  0  0  0  0  0  0  0
    1.7662    0.2772   -3.6386 H   0  0  0  0  0  0  0  0  0  0  0  0
  1  2  1  0  0  0  0
  1 40  1  0  0  0  0
  1 41  1  0  0  0  0
  1 42  1  0  0  0  0
  2  3  1  0  0  0  0
  2 43  1  0  0  0  0
  2 44  1  0  0  0  0
  3  4  1  0  0  0  0
  4  9  2  0  0  0  0
  4  5  1  0  0  0  0
  5  6  2  0  0  0  0
  5 45  1  0  0  0  0
  6  7  1  0  0  0  0
  6 14  1  0  0  0  0
  7  8  2  0  0  0  0
  7 46  1  0  0  0  0
  8  9  1  0  0  0  0
  8 47  1  0  0  0  0
  9 10  1  0  0  0  0
 10 11  1  0  0  0  0
 11 12  1  0  0  0  0
 11 48  1  0  0  0  0
 11 49  1  0  0  0  0
 12 13  2  0  0  0  0
 12 50  1  0  0  0  0
 13 51  1  0  0  0  0
 13 52  1  0  0  0  0
 14 16  1  0  0  0  0
 14 31  1  0  0  0  0
 14 15  1  6  0  0  0
 16 27  2  0  0  0  0
 16 17  1  0  0  0  0
 17 26  2  0  0  0  0
 17 18  1  0  0  0  0
 18 23  2  0  0  0  0
 18 19  1  0  0  0  0
 19 20  2  0  0  0  0
 19 53  1  0  0  0  0
 20 21  1  0  0  0  0
 20 54  1  0  0  0  0
 21 22  2  0  0  0  0
 21 24  1  0  0  0  0
 22 23  1  0  0  0  0
 22 55  1  0  0  0  0
 23 56  1  0  0  0  0
 24 25  1  0  0  0  0
 25 57  1  0  0  0  0
 25 58  1  0  0  0  0
 25 59  1  0  0  0  0
 27 29  1  0  0  0  0
 27 28  1  0  0  0  0
 29 31  1  0  0  0  0
 29 30  2  0  0  0  0
 31 32  1  0  0  0  0
 32 33  1  0  0  0  0
 32 60  1  0  0  0  0
 32 61  1  0  0  0  0
 33 34  1  0  0  0  0
 33 62  1  0  0  0  0
 33 63  1  0  0  0  0
 34 35  1  0  0  0  0
 34 64  1  0  0  0  0
 34 65  1  0  0  0  0
 35 39  1  0  0  0  0
 35 36  1  0  0  0  0
 36 37  2  0  0  0  0
 36 66  1  0  0  0  0
 37 38  1  0  0  0  0
 37 67  1  0  0  0  0
 38 39  2  0  0  0  0
 39 68  1  0  0  0  0
M  CHG  1  28  -1
M  END
$$$$
ZINC63454101
 OpenBabel01252620473D

 43 44  0  0  0  0  0  0  0  0999 V2000
    0.2310    0.9717    1.5292 C   0  0  0  0  0  0  0  0  0  0  0  0
    0.1359   -0.4875    1.4399 N   0  0  0  0  0  0  0  0  0  0  0  0
   -1.0403   -1.0684    1.1304 C   0  0  0  0  0  0  0  0  0  0  0  0
   -2.0198   -0.3832    0.9259 O   0  0  0  0  0  0  0  0  0  0  0  0
   -1.1382   -2.5694    1.0386 C   0  0  0  0  0  0  0  0  0  0  0  0
   -2.4761   -2.9396    0.6997 O   0  0  0  0  0  0  0  0  0  0  0  0
   -2.7361   -4.2661    0.5768 C   0  0  0  0  0  0  0  0  0  0  0  0
   -1.7288   -5.1948    0.7829 C   0  0  0  0  0  0  0  0  0  0  0  0
   -1.9944   -6.5450    0.6574 C   0  0  0  0  0  0  0  0  0  0  0  0
   -3.2664   -6.9825    0.3250 C   0  0  0  0  0  0  0  0  0  0  0  0
   -4.2816   -6.0749    0.1161 C   0  0  0  0  0  0  0  0  0  0  0  0
   -4.0289   -4.7041    0.2458 C   0  0  0  0  0  0  0  0  0  0  0  0
   -5.1063   -3.7307    0.0308 C   0  0  0  0  0  0  0  0  0  0  0  0
   -6.2284   -4.0972   -0.6398 C   0  0  0  0  0  0  0  0  0  0  0  0
   -7.4836   -3.3497   -0.8533 C   0  0  0  0  0  0  0  0  0  0  0  0
   -7.6445   -2.2293   -0.4060 O   0  0  0  0  0  0  0  0  0  0  0  0
   -8.4241   -3.9590   -1.5555 N   0  0  0  0  0  0  0  0  0  0  0  0
   -8.2415   -5.2005   -2.0497 C   0  0  0  0  0  0  0  0  0  0  0  0
   -9.3281   -6.1474   -2.9736 S   0  0  0  0  0  0  0  0  0  0  0  0
   -6.5893   -5.6143   -1.5138 S   0  0  0  0  0  0  0  0  0  0  0  0
   -9.6933   -3.2700   -1.8017 C   0  0  0  0  0  0  0  0  0  0  0  0
   -9.5942   -2.4672   -3.1004 C   0  0  0  0  0  0  0  0  0  0  0  0
  -10.9196   -1.7476   -3.3576 C   0  0  0  0  0  0  0  0  0  0  0  0
  -10.8220   -0.9568   -4.6368 C   0  0  0  0  0  0  0  0  0  0  0  0
   -9.7881   -0.9679   -5.2829 O   0  0  0  0  0  0  0  0  0  0  0  0
  -11.7769   -0.3061   -5.0256 O   0  0  0  0  0  1  0  0  0  0  0  0
    1.2516    1.2541    1.7876 H   0  0  0  0  0  0  0  0  0  0  0  0
   -0.0358    1.4127    0.5688 H   0  0  0  0  0  0  0  0  0  0  0  0
   -0.4519    1.3340    2.2976 H   0  0  0  0  0  0  0  0  0  0  0  0
    0.9193   -1.0355    1.6035 H   0  0  0  0  0  0  0  0  0  0  0  0
   -0.4553   -2.9317    0.2701 H   0  0  0  0  0  0  0  0  0  0  0  0
   -0.8713   -3.0104    1.9990 H   0  0  0  0  0  0  0  0  0  0  0  0
   -0.7342   -4.8628    1.0416 H   0  0  0  0  0  0  0  0  0  0  0  0
   -1.2051   -7.2642    0.8193 H   0  0  0  0  0  0  0  0  0  0  0  0
   -3.4629   -8.0401    0.2289 H   0  0  0  0  0  0  0  0  0  0  0  0
   -5.2715   -6.4205   -0.1428 H   0  0  0  0  0  0  0  0  0  0  0  0
   -5.0064   -2.7230    0.4062 H   0  0  0  0  0  0  0  0  0  0  0  0
  -10.4943   -4.0040   -1.8886 H   0  0  0  0  0  0  0  0  0  0  0  0
   -9.9071   -2.5952   -0.9729 H   0  0  0  0  0  0  0  0  0  0  0  0
   -8.7931   -1.7331   -3.0136 H   0  0  0  0  0  0  0  0  0  0  0  0
   -9.3803   -3.1420   -3.9293 H   0  0  0  0  0  0  0  0  0  0  0  0
  -11.7207   -2.4816   -3.4444 H   0  0  0  0  0  0  0  0  0  0  0  0
  -11.1335   -1.0728   -2.5287 H   0  0  0  0  0  0  0  0  0  0  0  0
  1  2  1  0  0  0  0
  1 27  1  0  0  0  0
  1 28  1  0  0  0  0
  1 29  1  0  0  0  0
  2  3  1  0  0  0  0
  2 30  1  0  0  0  0
  3  4  2  0  0  0  0
  3  5  1  0  0  0  0
  5  6  1  0  0  0  0
  5 31  1  0  0  0  0
  5 32  1  0  0  0  0
  6  7  1  0  0  0  0
  7 12  2  0  0  0  0
  7  8  1  0  0  0  0
  8  9  2  0  0  0  0
  8 33  1  0  0  0  0
  9 10  1  0  0  0  0
  9 34  1  0  0  0  0
 10 11  2  0  0  0  0
 10 35  1  0  0  0  0
 11 12  1  0  0  0  0
 11 36  1  0  0  0  0
 12 13  1  0  0  0  0
 13 14  2  0  0  0  0
 13 37  1  0  0  0  0
 14 20  1  0  0  0  0
 14 15  1  0  0  0  0
 15 16  2  0  0  0  0
 15 17  1  0  0  0  0
 17 18  1  0  0  0  0
 17 21  1  0  0  0  0
 18 19  2  0  0  0  0
 18 20  1  0  0  0  0
 21 22  1  0  0  0  0
 21 38  1  0  0  0  0
 21 39  1  0  0  0  0
 22 23  1  0  0  0  0
 22 40  1  0  0  0  0
 22 41  1  0  0  0  0
 23 24  1  0  0  0  0
 23 42  1  0  0  0  0
 23 43  1  0  0  0  0
 24 25  2  0  0  0  0
 24 26  1  0  0  0  0
M  END
$$$$
ZINC27531874
 OpenBabel01252620473D

 39 40  0  0  0  0  0  0  0  0999 V2000
    6.0635    5.5985   -3.1643 C   0  0  0  0  0  0  0  0  0  0  0  0
    4.6782    4.9552   -3.0744 C   0  0  0  0  0  0  0  0  0  0  0  0
    4.3182    4.7741   -1.6794 O   0  0  0  0  0  0  0  0  0  0  0  0
    3.1234    4.2175   -1.4257 C   0  0  0  0  0  0  0  0  0  0  0  0
    2.4023    3.8923   -2.3390 O   0  0  0  0  0  0  0  0  0  0  0  0
    2.6815    3.9982   -0.0018 C   0  0  0  0  0  0  0  0  0  0  0  0
    1.3525    3.3818    0.0076 N   0  0  0  0  0  0  0  0  0  0  0  0
    1.2391    2.0231    0.0011 C   0  0  0  0  0  0  0  0  0  0  0  0
   -0.0169    1.3943    0.0097 C   0  0  0  0  0  0  0  0  0  0  0  0
    0.0021   -0.0041    0.0020 C   0  0  0  0  0  0  0  0  0  0  0  0
    1.2111   -0.6389   -0.0129 C   0  0  0  0  0  0  0  0  0  0  0  0
    2.3665    0.7194   -0.0167 S   0  0  0  0  0  0  0  0  0  0  0  0
    1.4890   -2.0751   -0.0240 C   0  0  0  0  0  0  0  0  0  0  0  0
    0.5703   -2.8725   -0.0202 O   0  0  0  0  0  0  0  0  0  0  0  0
    2.7643   -2.5153   -0.0384 O   0  0  0  0  0  1  0  0  0  0  0  0
   -1.2823   -0.7923    0.0105 C   0  0  0  0  0  0  0  0  0  0  0  0
   -1.1857    2.3078    0.0316 C   0  0  0  0  0  0  0  0  0  0  0  0
   -2.3172    1.8602    0.0458 O   0  0  0  0  0  0  0  0  0  0  0  0
   -0.9793    3.6365    0.0317 N   0  0  0  0  0  0  0  0  0  0  0  0
    0.2557    4.1632    0.0231 C   0  0  0  0  0  0  0  0  0  0  0  0
    0.3868    5.3719    0.0290 O   0  0  0  0  0  0  0  0  0  0  0  0
   -2.1357    4.5357    0.0480 C   0  0  0  0  0  0  0  0  0  0  0  0
   -2.5520    4.8573   -1.3888 C   0  0  0  0  0  0  0  0  0  0  0  0
   -3.0091    3.6652   -2.0304 O   0  0  0  0  0  0  0  0  0  0  0  0
    6.3362    5.7357   -4.2211 H   0  0  0  0  0  0  0  0  0  0  0  0
    6.8029    4.9464   -2.6765 H   0  0  0  0  0  0  0  0  0  0  0  0
    6.0473    6.5759   -2.6599 H   0  0  0  0  0  0  0  0  0  0  0  0
    3.9388    5.6073   -3.5622 H   0  0  0  0  0  0  0  0  0  0  0  0
    4.6944    3.9778   -3.5788 H   0  0  0  0  0  0  0  0  0  0  0  0
    3.3970    3.3348    0.5061 H   0  0  0  0  0  0  0  0  0  0  0  0
    2.6413    4.9643    0.5226 H   0  0  0  0  0  0  0  0  0  0  0  0
   -1.0524   -1.8680    0.0024 H   0  0  0  0  0  0  0  0  0  0  0  0
   -1.8749   -0.5373   -0.8805 H   0  0  0  0  0  0  0  0  0  0  0  0
   -1.8571   -0.5469    0.9157 H   0  0  0  0  0  0  0  0  0  0  0  0
   -2.9715    4.0486    0.5716 H   0  0  0  0  0  0  0  0  0  0  0  0
   -1.8689    5.4667    0.5696 H   0  0  0  0  0  0  0  0  0  0  0  0
   -3.3619    5.6015   -1.3780 H   0  0  0  0  0  0  0  0  0  0  0  0
   -1.6895    5.2620   -1.9386 H   0  0  0  0  0  0  0  0  0  0  0  0
   -3.3522    3.6997   -3.0749 H   0  0  0  0  0  0  0  0  0  0  0  0
  1  2  1  0  0  0  0
  1 25  1  0  0  0  0
  1 26  1  0  0  0  0
  1 27  1  0  0  0  0
  2  3  1  0  0  0  0
  2 28  1  0  0  0  0
  2 29  1  0  0  0  0
  3  4  1  0  0  0  0
  4  5  2  0  0  0  0
  4  6  1  0  0  0  0
  6  7  1  0  0  0  0
  6 30  1  0  0  0  0
  6 31  1  0  0  0  0
  7 20  1  0  0  0  0
  7  8  1  0  0  0  0
  8 12  1  0  0  0  0
  8  9  2  0  0  0  0
  9 10  1  0  0  0  0
  9 17  1  0  0  0  0
 10 11  2  0  0  0  0
 10 16  1  0  0  0  0
 11 12  1  0  0  0  0
 11 13  1  0  0  0  0
 13 14  2  0  0  0  0
 13 15  1  0  0  0  0
 16 32  1  0  0  0  0
 16 33  1  0  0  0  0
 16 34  1  0  0  0  0
 17 18  2  0  0  0  0
 17 19  1  0  0  0  0
 19 20  1  0  0  0  0
 19 22  1  0  0  0  0
 20 21  2  0  0  0  0
 22 23  1  0  0  0  0
 22 35  1  0  0  0  0
 22 36  1  0  0  0  0
 23 24  1  0  0  0  0
 23 37  1  0  0  0  0
 23 38  1  0  0  0  0
 24 39  1  0  0  0  0
M  END
$$$$
ZINC06430341
 OpenBabel01252620473D

 51 55  0  0  0  0  0  0  0  0999 V2000
   -4.0777    7.2014   -4.5661 C   0  0  0  0  0  0  0  0  0  0  0  0
   -5.3201    7.6505   -3.8409 C   0  0  0  0  0  0  0  0  0  0  0  0
   -6.2783    8.4090   -4.4948 C   0  0  0  0  0  0  0  0  0  0  0  0
   -7.4065    8.8009   -3.7914 C   0  0  0  0  0  0  0  0  0  0  0  0
   -7.5344    8.4416   -2.5248 N   0  0  0  0  0  0  0  0  0  0  0  0
   -6.5996    7.7159   -1.9290 C   0  0  0  0  0  0  0  0  0  0  0  0
   -5.5070    7.3296   -2.5714 N   0  0  0  0  0  0  0  0  0  0  0  0
   -6.7657    7.3576   -0.6025 N   0  0  0  0  0  2  0  0  0  0  0  0
   -5.8259    6.1639    0.0566 S   0  0  0  0  0  0  0  0  0  0  0  0
   -5.8739    5.0656   -0.8437 O   0  0  0  0  0  0  0  0  0  0  0  0
   -6.2118    6.0492    1.4194 O   0  0  0  0  0  0  0  0  0  0  0  0
   -4.1633    6.7472    0.0514 C   0  0  0  0  0  0  0  0  0  0  0  0
   -3.6748    7.4488    1.1381 C   0  0  0  0  0  0  0  0  0  0  0  0
   -2.3719    7.9073    1.1369 C   0  0  0  0  0  0  0  0  0  0  0  0
   -1.5527    7.6634    0.0429 C   0  0  0  0  0  0  0  0  0  0  0  0
   -2.0478    6.9636   -1.0492 C   0  0  0  0  0  0  0  0  0  0  0  0
   -3.3498    6.5027   -1.0397 C   0  0  0  0  0  0  0  0  0  0  0  0
   -0.2302    8.1278    0.0385 N   0  0  0  0  0  0  0  0  0  0  0  0
    0.9201    7.3676    0.0296 C   0  0  0  0  0  0  0  0  0  0  0  0
    1.9339    8.2033    0.0229 N   0  0  0  0  0  0  0  0  0  0  0  0
    1.5048    9.4145    0.0318 N   0  0  0  0  0  0  0  0  0  0  0  0
    0.1885    9.4285    0.0446 C   0  0  0  0  0  0  0  0  0  0  0  0
   -0.8415   10.8581    0.0593 S   0  0  0  0  0  1  0  0  0  0  0  0
    0.9978    5.8938    0.0279 C   0  0  0  0  0  0  0  0  0  0  0  0
    2.2591    5.2715    0.0185 C   0  0  0  0  0  0  0  0  0  0  0  0
    2.3437    3.9122    0.0168 C   0  0  0  0  0  0  0  0  0  0  0  0
    1.1465    3.1670    0.0238 C   0  0  0  0  0  0  0  0  0  0  0  0
    1.1632    1.7638    0.0212 C   0  0  0  0  0  0  0  0  0  0  0  0
   -0.0124    1.0757    0.0278 C   0  0  0  0  0  0  0  0  0  0  0  0
   -1.2335    1.7465    0.0312 C   0  0  0  0  0  0  0  0  0  0  0  0
   -1.2869    3.1065    0.0403 C   0  0  0  0  0  0  0  0  0  0  0  0
   -0.0942    3.8521    0.0332 C   0  0  0  0  0  0  0  0  0  0  0  0
   -0.1193    5.1874    0.0349 N   0  0  0  0  0  0  0  0  0  0  0  0
   -8.4747    9.6260   -4.4616 C   0  0  0  0  0  0  0  0  0  0  0  0
   -4.1072    7.5652   -5.6038 H   0  0  0  0  0  0  0  0  0  0  0  0
   -4.0290    6.1025   -4.5640 H   0  0  0  0  0  0  0  0  0  0  0  0
   -3.1902    7.6087   -4.0598 H   0  0  0  0  0  0  0  0  0  0  0  0
   -6.1486    8.6889   -5.5298 H   0  0  0  0  0  0  0  0  0  0  0  0
   -4.3125    7.6383    1.9889 H   0  0  0  0  0  0  0  0  0  0  0  0
   -1.9909    8.4553    1.9860 H   0  0  0  0  0  0  0  0  0  0  0  0
   -1.4142    6.7762   -1.9035 H   0  0  0  0  0  0  0  0  0  0  0  0
   -3.7342    5.9547   -1.8873 H   0  0  0  0  0  0  0  0  0  0  0  0
    3.1581    5.8699    0.0125 H   0  0  0  0  0  0  0  0  0  0  0  0
    3.3037    3.4172    0.0099 H   0  0  0  0  0  0  0  0  0  0  0  0
    2.1032    1.2322    0.0145 H   0  0  0  0  0  0  0  0  0  0  0  0
    0.0023   -0.0042    0.0257 H   0  0  0  0  0  0  0  0  0  0  0  0
   -2.1519    1.1785    0.0315 H   0  0  0  0  0  0  0  0  0  0  0  0
   -2.2417    3.6114    0.0478 H   0  0  0  0  0  0  0  0  0  0  0  0
   -9.2820    9.8335   -3.7438 H   0  0  0  0  0  0  0  0  0  0  0  0
   -8.8812    9.0718   -5.3205 H   0  0  0  0  0  0  0  0  0  0  0  0
   -8.0406   10.5749   -4.8097 H   0  0  0  0  0  0  0  0  0  0  0  0
  1  2  1  0  0  0  0
  1 35  1  0  0  0  0
  1 36  1  0  0  0  0
  1 37  1  0  0  0  0
  2  7  2  0  0  0  0
  2  3  1  0  0  0  0
  3  4  2  0  0  0  0
  3 38  1  0  0  0  0
  4  5  1  0  0  0  0
  4 34  1  0  0  0  0
  5  6  2  0  0  0  0
  6  7  1  0  0  0  0
  6  8  1  0  0  0  0
  8  9  1  0  0  0  0
  9 10  2  0  0  0  0
  9 11  2  0  0  0  0
  9 12  1  0  0  0  0
 12 17  2  0  0  0  0
 12 13  1  0  0  0  0
 13 14  2  0  0  0  0
 13 39  1  0  0  0  0
 14 15  1  0  0  0  0
 14 40  1  0  0  0  0
 15 16  2  0  0  0  0
 15 18  1  0  0  0  0
 16 17  1  0  0  0  0
 16 41  1  0  0  0  0
 17 42  1  0  0  0  0
 18 22  1  0  0  0  0
 18 19  1  0  0  0  0
 19 24  1  0  0  0  0
 19 20  2  0  0  0  0
 20 21  1  0  0  0  0
 21 22  2  0  0  0  0
 22 23  1  0  0  0  0
 24 33  2  0  0  0  0
 24 25  1  0  0  0  0
 25 26  2  0  0  0  0
 25 43  1  0  0  0  0
 26 27  1  0  0  0  0
 26 44  1  0  0  0  0
 27 32  2  0  0  0  0
 27 28  1  0  0  0  0
 28 29  2  0  0  0  0
 28 45  1  0  0  0  0
 29 30  1  0  0  0  0
 29 46  1  0  0  0  0
 30 31  2  0  0  0  0
 30 47  1  0  0  0  0
 31 32  1  0  0  0  0
 31 48  1  0  0  0  0
 32 33  1  0  0  0  0
 34 49  1  0  0  0  0
 34 50  1  0  0  0  0
 34 51  1  0  0  0  0
M  END
$$$$
ZINC40053160
 OpenBabel01252620473D

 69 72  0  0  1  0  0  0  0  0999 V2000
   -1.7201   -4.0129   -2.7736 C   0  0  0  0  0  0  0  0  0  0  0  0
   -1.3000   -3.2966   -1.4886 C   0  0  0  0  0  0  0  0  0  0  0  0
   -0.4001   -4.2175   -0.6622 C   0  0  0  0  0  0  0  0  0  0  0  0
    0.0200   -3.5012    0.6228 C   0  0  0  0  0  0  0  0  0  0  0  0
    0.9199   -4.4221    1.4492 C   0  0  0  0  0  0  0  0  0  0  0  0
    1.3123   -3.7530    2.6494 O   0  0  0  0  0  0  0  0  0  0  0  0
    2.1201   -4.4381    3.5023 C   0  0  0  0  0  0  0  0  0  0  0  0
    2.5306   -5.7237    3.1880 C   0  0  0  0  0  0  0  0  0  0  0  0
    3.3522   -6.4186    4.0559 C   0  0  0  0  0  0  0  0  0  0  0  0
    3.7657   -5.8339    5.2385 C   0  0  0  0  0  0  0  0  0  0  0  0
    3.3594   -4.5519    5.5584 C   0  0  0  0  0  0  0  0  0  0  0  0
    2.5410   -3.8475    4.6900 C   0  0  0  0  0  0  0  0  0  0  0  0
    2.1453   -2.5840    5.0003 O   0  0  0  0  0  0  0  0  0  0  0  0
    2.6940   -2.0051    6.1859 C   0  0  0  0  0  0  0  0  0  0  0  0
    2.2023   -0.5628    6.3240 C   0  0  0  0  0  0  0  0  0  0  0  0
    4.6609   -6.5961    6.1813 C   0  0  2  0  0  0  0  0  0  0  0  0
    4.8846   -7.5810    5.7712 H   0  0  0  0  0  0  0  0  0  0  0  0
    3.9964   -6.7341    7.5312 C   0  0  0  0  0  0  0  0  0  0  0  0
    4.8017   -6.1180    8.4274 C   0  0  0  0  0  0  0  0  0  0  0  0
    5.9814   -5.5725    7.7259 C   0  0  0  0  0  0  0  0  0  0  0  0
    6.8887   -4.9635    8.2573 O   0  0  0  0  0  0  0  0  0  0  0  0
    5.9041   -5.8505    6.4104 N   0  0  0  0  0  0  0  0  0  0  0  0
    6.8857   -5.4762    5.3894 C   0  0  0  0  0  0  0  0  0  0  0  0
    6.5245   -4.1059    4.8127 C   0  0  0  0  0  0  0  0  0  0  0  0
    7.5497   -3.7150    3.7463 C   0  0  0  0  0  0  0  0  0  0  0  0
    7.2123   -2.4351    3.2077 O   0  0  0  0  0  0  0  0  0  0  0  0
    4.5637   -6.0175    9.7561 O   0  5  0  0  0  0  0  0  0  0  0  0
    2.7241   -7.4066    7.8156 C   0  0  0  0  0  0  0  0  0  0  0  0
    2.2376   -7.3432    8.9304 O   0  0  0  0  0  0  0  0  0  0  0  0
    2.0368   -8.1565    6.7558 C   0  0  0  0  0  0  0  0  0  0  0  0
    0.7978   -8.7092    6.8643 C   0  0  0  0  0  0  0  0  0  0  0  0
    0.5262   -9.3487    5.5786 C   0  0  0  0  0  0  0  0  0  0  0  0
   -0.5507  -10.0722    5.0588 C   0  0  0  0  0  0  0  0  0  0  0  0
   -0.4912  -10.5498    3.7802 C   0  0  0  0  0  0  0  0  0  0  0  0
    0.6310  -10.3210    2.9952 C   0  0  0  0  0  0  0  0  0  0  0  0
    1.7037   -9.6103    3.4892 C   0  0  0  0  0  0  0  0  0  0  0  0
    1.6666   -9.1140    4.7868 C   0  0  0  0  0  0  0  0  0  0  0  0
    2.5358   -8.3968    5.5256 O   0  0  0  0  0  0  0  0  0  0  0  0
   -2.2651   -4.9224   -2.5210 H   0  0  0  0  0  0  0  0  0  0  0  0
   -2.3612   -3.3568   -3.3624 H   0  0  0  0  0  0  0  0  0  0  0  0
   -0.8332   -4.2698   -3.3530 H   0  0  0  0  0  0  0  0  0  0  0  0
   -0.7549   -2.3871   -1.7412 H   0  0  0  0  0  0  0  0  0  0  0  0
   -2.1868   -3.0397   -0.9093 H   0  0  0  0  0  0  0  0  0  0  0  0
   -0.9451   -5.1270   -0.4096 H   0  0  0  0  0  0  0  0  0  0  0  0
    0.4868   -4.4744   -1.2415 H   0  0  0  0  0  0  0  0  0  0  0  0
    0.5651   -2.5916    0.3702 H   0  0  0  0  0  0  0  0  0  0  0  0
   -0.8668   -3.2443    1.2021 H   0  0  0  0  0  0  0  0  0  0  0  0
    0.3749   -5.3316    1.7018 H   0  0  0  0  0  0  0  0  0  0  0  0
    1.8068   -4.6790    0.8699 H   0  0  0  0  0  0  0  0  0  0  0  0
    2.2085   -6.1830    2.2651 H   0  0  0  0  0  0  0  0  0  0  0  0
    3.6714   -7.4205    3.8098 H   0  0  0  0  0  0  0  0  0  0  0  0
    3.6835   -4.0976    6.4830 H   0  0  0  0  0  0  0  0  0  0  0  0
    2.3747   -2.5825    7.0535 H   0  0  0  0  0  0  0  0  0  0  0  0
    3.7823   -2.0136    6.1243 H   0  0  0  0  0  0  0  0  0  0  0  0
    2.5917    0.0343    5.4994 H   0  0  0  0  0  0  0  0  0  0  0  0
    1.1127   -0.5467    6.3015 H   0  0  0  0  0  0  0  0  0  0  0  0
    2.5523   -0.1486    7.2695 H   0  0  0  0  0  0  0  0  0  0  0  0
    7.8779   -5.4314    5.8384 H   0  0  0  0  0  0  0  0  0  0  0  0
    6.8812   -6.2189    4.5915 H   0  0  0  0  0  0  0  0  0  0  0  0
    5.5323   -4.1507    4.3636 H   0  0  0  0  0  0  0  0  0  0  0  0
    6.5290   -3.3633    5.6105 H   0  0  0  0  0  0  0  0  0  0  0  0
    8.5419   -3.6702    4.1953 H   0  0  0  0  0  0  0  0  0  0  0  0
    7.5452   -4.4577    2.9485 H   0  0  0  0  0  0  0  0  0  0  0  0
    7.8210   -2.1232    2.5241 H   0  0  0  0  0  0  0  0  0  0  0  0
    0.1472   -8.6810    7.7259 H   0  0  0  0  0  0  0  0  0  0  0  0
   -1.4258  -10.2532    5.6652 H   0  0  0  0  0  0  0  0  0  0  0  0
   -1.3226  -11.1093    3.3774 H   0  0  0  0  0  0  0  0  0  0  0  0
    0.6639  -10.7047    1.9862 H   0  0  0  0  0  0  0  0  0  0  0  0
    2.5713   -9.4396    2.8691 H   0  0  0  0  0  0  0  0  0  0  0  0
  1  2  1  0  0  0  0
  1 39  1  0  0  0  0
  1 40  1  0  0  0  0
  1 41  1  0  0  0  0
  2  3  1  0  0  0  0
  2 42  1  0  0  0  0
  2 43  1  0  0  0  0
  3  4  1  0  0  0  0
  3 44  1  0  0  0  0
  3 45  1  0  0  0  0
  4  5  1  0  0  0  0
  4 46  1  0  0  0  0
  4 47  1  0  0  0  0
  5  6  1  0  0  0  0
  5 48  1  0  0  0  0
  5 49  1  0  0  0  0
  6  7  1  0  0  0  0
  7 12  2  0  0  0  0
  7  8  1  0  0  0  0
  8  9  2  0  0  0  0
  8 50  1  0  0  0  0
  9 10  1  0  0  0  0
  9 51  1  0  0  0  0
 10 11  2  0  0  0  0
 10 16  1  0  0  0  0
 11 12  1  0  0  0  0
 11 52  1  0  0  0  0
 12 13  1  0  0  0  0
 13 14  1  0  0  0  0
 14 15  1  0  0  0  0
 14 53  1  0  0  0  0
 14 54  1  0  0  0  0
 15 55  1  0  0  0  0
 15 56  1  0  0  0  0
 15 57  1  0  0  0  0
 16 17  1  6  0  0  0
 16 22  1  0  0  0  0
 16 18  1  0  0  0  0
 18 19  2  0  0  0  0
 18 28  1  0  0  0  0
 19 20  1  0  0  0  0
 19 27  1  0  0  0  0
 20 21  2  0  0  0  0
 20 22  1  0  0  0  0
 22 23  1  0  0  0  0
 23 24  1  0  0  0  0
 23 58  1  0  0  0  0
 23 59  1  0  0  0  0
 24 25  1  0  0  0  0
 24 60  1  0  0  0  0
 24 61  1  0  0  0  0
 25 26  1  0  0  0  0
 25 62  1  0  0  0  0
 25 63  1  0  0  0  0
 26 64  1  0  0  0  0
 28 29  2  0  0  0  0
 28 30  1  0  0  0  0
 30 38  1  0  0  0  0
 30 31  2  0  0  0  0
 31 32  1  0  0  0  0
 31 65  1  0  0  0  0
 32 37  2  0  0  0  0
 32 33  1  0  0  0  0
 33 34  2  0  0  0  0
 33 66  1  0  0  0  0
 34 35  1  0  0  0  0
 34 67  1  0  0  0  0
 35 36  2  0  0  0  0
 35 68  1  0  0  0  0
 36 37  1  0  0  0  0
 36 69  1  0  0  0  0
 37 38  1  0  0  0  0
M  CHG  1  27  -1
M  END
$$$$
ZINC49692249
 OpenBabel01252620473D

 32 34  0  0  0  0  0  0  0  0999 V2000
   -0.1575    1.3323   -0.3234 C   0  0  0  0  0  0  0  0  0  0  0  0
    0.9211    2.1092   -0.2203 C   0  0  0  0  0  0  0  0  0  0  0  0
    2.2040    0.9124    0.1138 S   0  0  0  0  0  0  0  0  0  0  0  0
    1.1804   -0.5423    0.0876 C   0  0  0  0  0  0  0  0  0  0  0  0
   -0.0603   -0.0312   -0.1711 N   0  0  0  0  0  0  0  0  0  0  0  0
   -0.9142   -1.1547   -0.2023 C   0  0  0  0  0  0  0  0  0  0  0  0
   -0.1130   -2.2727    0.0431 C   0  0  0  0  0  0  0  0  0  0  0  0
    1.1372   -1.8464    0.2104 N   0  0  0  0  0  0  0  0  0  0  0  0
   -0.5426   -3.5896    0.1017 N   0  0  0  0  0  0  0  0  0  0  0  0
    0.4413   -4.6661    0.2263 C   0  0  0  0  0  0  0  0  0  0  0  0
    0.4225   -5.5248   -1.0434 C   0  0  0  0  0  0  0  0  0  0  0  0
   -1.2635   -6.1583   -1.2920 S   0  0  2  0  0  0  0  0  0  0  0  0
   -1.3584   -6.7613   -2.5753 O   0  0  0  0  0  0  0  0  0  0  0  0
   -2.2811   -4.6522   -1.2533 C   0  0  0  0  0  0  0  0  0  0  0  0
   -1.9748   -3.8861    0.0444 C   0  0  0  0  0  0  0  0  0  0  0  0
   -2.2921   -1.1498   -0.4331 C   0  0  0  0  0  0  0  0  0  0  0  0
   -3.1250   -0.3996    0.3741 C   0  0  0  0  0  0  0  0  0  0  0  0
   -4.5022   -0.3947    0.1434 C   0  0  0  0  0  0  0  0  0  0  0  0
   -5.0143   -1.1155   -0.8580 O   0  0  0  0  0  0  0  0  0  0  0  0
   -5.3077    0.3309    0.9241 O   0  0  0  0  0  1  0  0  0  0  0  0
   -1.1198    1.7795   -0.5244 H   0  0  0  0  0  0  0  0  0  0  0  0
    0.9988    3.1822   -0.3149 H   0  0  0  0  0  0  0  0  0  0  0  0
    1.4343   -4.2371    0.3602 H   0  0  0  0  0  0  0  0  0  0  0  0
    0.1942   -5.2863    1.0880 H   0  0  0  0  0  0  0  0  0  0  0  0
    0.7150   -4.9175   -1.9000 H   0  0  0  0  0  0  0  0  0  0  0  0
    1.1141   -6.3597   -0.9306 H   0  0  0  0  0  0  0  0  0  0  0  0
   -2.0427   -4.0274   -2.1141 H   0  0  0  0  0  0  0  0  0  0  0  0
   -3.3366   -4.9232   -1.2762 H   0  0  0  0  0  0  0  0  0  0  0  0
   -2.2544   -4.4957    0.9036 H   0  0  0  0  0  0  0  0  0  0  0  0
   -2.5397   -2.9540    0.0609 H   0  0  0  0  0  0  0  0  0  0  0  0
   -2.7061   -1.7325   -1.2428 H   0  0  0  0  0  0  0  0  0  0  0  0
   -2.7110    0.1831    1.1838 H   0  0  0  0  0  0  0  0  0  0  0  0
  1  5  1  0  0  0  0
  1  2  2  0  0  0  0
  1 21  1  0  0  0  0
  2  3  1  0  0  0  0
  2 22  1  0  0  0  0
  3  4  1  0  0  0  0
  4  8  2  0  0  0  0
  4  5  1  0  0  0  0
  5  6  1  0  0  0  0
  6  7  2  0  0  0  0
  6 16  1  0  0  0  0
  7  8  1  0  0  0  0
  7  9  1  0  0  0  0
  9 15  1  0  0  0  0
  9 10  1  0  0  0  0
 10 11  1  0  0  0  0
 10 23  1  0  0  0  0
 10 24  1  0  0  0  0
 11 12  1  0  0  0  0
 11 25  1  0  0  0  0
 11 26  1  0  0  0  0
 12 13  2  6  0  0  0
 12 14  1  0  0  0  0
 14 15  1  0  0  0  0
 14 27  1  0  0  0  0
 14 28  1  0  0  0  0
 15 29  1  0  0  0  0
 15 30  1  0  0  0  0
 16 17  2  0  0  0  0
 16 31  1  0  0  0  0
 17 18  1  0  0  0  0
 17 32  1  0  0  0  0
 18 19  2  0  0  0  0
 18 20  1  0  0  0  0
M  END
$$$$
ZINC13638170
 OpenBabel01252620473D

 44 46  0  0  0  0  0  0  0  0999 V2000
   -0.0126    1.3748   -0.1792 C   0  0  0  0  0  0  0  0  0  0  0  0
    1.1745    2.0810   -0.1820 C   0  0  0  0  0  0  0  0  0  0  0  0
    2.3796    1.4110   -0.0183 C   0  0  0  0  0  0  0  0  0  0  0  0
    2.3872    0.0321    0.1478 C   0  0  0  0  0  0  0  0  0  0  0  0
    1.1970   -0.6681    0.1498 C   0  0  0  0  0  0  0  0  0  0  0  0
   -0.0017    0.0022   -0.0136 C   0  0  0  0  0  0  0  0  0  0  0  0
    1.2055   -2.4175    0.3599 S   0  0  0  0  0  0  0  0  0  0  0  0
    0.0026   -2.9022   -0.2210 O   0  0  0  0  0  0  0  0  0  0  0  0
    2.4874   -2.8700   -0.0537 O   0  0  0  0  0  0  0  0  0  0  0  0
    1.0999   -2.7160    1.9853 N   0  0  0  0  0  0  0  0  0  0  0  0
    2.3101   -2.8301    2.8147 C   0  0  0  0  0  0  0  0  0  0  0  0
    2.1493   -1.9139    4.0332 C   0  0  0  0  0  0  0  0  0  0  0  0
    0.9073   -2.2036    4.6792 O   0  0  0  0  0  0  0  0  0  0  0  0
   -0.2450   -1.9561    3.8700 C   0  0  0  0  0  0  0  0  0  0  0  0
   -0.2070   -2.8688    2.6442 C   0  0  0  0  0  0  0  0  0  0  0  0
    3.5839    2.1235   -0.0212 N   0  0  0  0  0  0  0  0  0  0  0  0
    3.6280    3.3746    0.4780 C   0  0  0  0  0  0  0  0  0  0  0  0
    2.6493    3.8477    1.0159 O   0  0  0  0  0  0  0  0  0  0  0  0
    4.8932    4.1858    0.3677 C   0  0  0  0  0  0  0  0  0  0  0  0
    4.6364    5.8130    1.1271 S   0  0  0  0  0  0  0  0  0  0  0  0
    6.1841    6.6293    0.9198 C   0  0  0  0  0  0  0  0  0  0  0  0
    6.3711    7.9530    1.4054 C   0  0  0  0  0  0  0  0  0  0  0  0
    5.4702    8.5477    1.9719 O   0  0  0  0  0  0  0  0  0  0  0  0
    7.5802    8.5318    1.2195 N   0  0  0  0  0  0  0  0  0  0  0  0
    7.7519    9.4329    1.5347 H   0  0  0  0  0  0  0  0  0  0  0  0
    8.5511    7.8212    0.5803 C   0  0  0  0  0  0  0  0  0  0  0  0
    9.7659    8.3773    0.3829 O   0  5  0  0  0  0  0  0  0  0  0  0
    8.3180    6.5997    0.1541 N   0  0  0  0  0  0  0  0  0  0  0  0
    7.1834    6.0202    0.3187 N   0  0  0  0  0  0  0  0  0  0  0  0
   -0.9506    1.8959   -0.3019 H   0  0  0  0  0  0  0  0  0  0  0  0
    1.1654    3.1532   -0.3118 H   0  0  0  0  0  0  0  0  0  0  0  0
    3.3229   -0.4920    0.2751 H   0  0  0  0  0  0  0  0  0  0  0  0
   -0.9312   -0.5478   -0.0118 H   0  0  0  0  0  0  0  0  0  0  0  0
    2.4331   -3.8616    3.1447 H   0  0  0  0  0  0  0  0  0  0  0  0
    3.1816   -2.5226    2.2367 H   0  0  0  0  0  0  0  0  0  0  0  0
    2.9704   -2.0861    4.7291 H   0  0  0  0  0  0  0  0  0  0  0  0
    2.1574   -0.8731    3.7097 H   0  0  0  0  0  0  0  0  0  0  0  0
   -1.1464   -2.1586    4.4484 H   0  0  0  0  0  0  0  0  0  0  0  0
   -0.2456   -0.9154    3.5460 H   0  0  0  0  0  0  0  0  0  0  0  0
   -1.0016   -2.5869    1.9533 H   0  0  0  0  0  0  0  0  0  0  0  0
   -0.3417   -3.9043    2.9566 H   0  0  0  0  0  0  0  0  0  0  0  0
    4.3871    1.7169   -0.3824 H   0  0  0  0  0  0  0  0  0  0  0  0
    5.7026    3.6682    0.8826 H   0  0  0  0  0  0  0  0  0  0  0  0
    5.1533    4.3122   -0.6833 H   0  0  0  0  0  0  0  0  0  0  0  0
  1  6  2  0  0  0  0
  1  2  1  0  0  0  0
  1 30  1  0  0  0  0
  2  3  2  0  0  0  0
  2 31  1  0  0  0  0
  3  4  1  0  0  0  0
  3 16  1  0  0  0  0
  4  5  2  0  0  0  0
  4 32  1  0  0  0  0
  5  6  1  0  0  0  0
  5  7  1  0  0  0  0
  6 33  1  0  0  0  0
  7  8  2  0  0  0  0
  7  9  2  0  0  0  0
  7 10  1  0  0  0  0
 10 15  1  0  0  0  0
 10 11  1  0  0  0  0
 11 12  1  0  0  0  0
 11 34  1  0  0  0  0
 11 35  1  0  0  0  0
 12 13  1  0  0  0  0
 12 36  1  0  0  0  0
 12 37  1  0  0  0  0
 13 14  1  0  0  0  0
 14 15  1  0  0  0  0
 14 38  1  0  0  0  0
 14 39  1  0  0  0  0
 15 40  1  0  0  0  0
 15 41  1  0  0  0  0
 16 17  1  0  0  0  0
 16 42  1  0  0  0  0
 17 18  2  0  0  0  0
 17 19  1  0  0  0  0
 19 20  1  0  0  0  0
 19 43  1  0  0  0  0
 19 44  1  0  0  0  0
 20 21  1  0  0  0  0
 21 29  2  0  0  0  0
 21 22  1  0  0  0  0
 22 23  2  0  0  0  0
 22 24  1  0  0  0  0
 24 25  1  0  0  0  0
 24 26  1  0  0  0  0
 26 27  1  0  0  0  0
 26 28  2  0  0  0  0
 28 29  1  0  0  0  0
M  CHG  1  27  -1
M  END
$$$$
ZINC42750800
 OpenBabel01252620473D

 15 14  0  0  0  0  0  0  0  0999 V2000
   -0.0187    1.5258    0.0104 C   0  0  0  0  0  0  0  0  0  0  0  0
    0.0021   -0.0041    0.0020 C   0  0  0  0  0  0  0  0  0  0  0  0
   -1.4051   -0.5263    0.1365 C   0  0  0  0  0  0  0  0  0  0  0  0
   -2.3382    0.2529    0.2304 O   0  0  0  0  0  0  0  0  0  0  0  0
   -1.6106   -1.7280    0.1514 O   0  0  0  0  0  1  0  0  0  0  0  0
    0.5970   -0.4913   -1.2941 C   0  0  0  0  0  0  0  0  0  0  0  0
    1.6038   -1.1787   -1.2823 O   0  0  0  0  0  0  0  0  0  0  0  0
    0.0714   -0.1980   -2.3544 O   0  0  0  0  0  1  0  0  0  0  0  0
    1.4167    2.0553   -0.0004 C   0  0  0  0  0  0  0  0  0  0  0  0
    1.3984    3.4501   -0.1077 F   0  0  0  0  0  0  0  0  0  0  0  0
    2.0585    1.6874    1.1869 F   0  0  0  0  0  0  0  0  0  0  0  0
   -0.5459    1.8868   -0.8726 H   0  0  0  0  0  0  0  0  0  0  0  0
   -0.5289    1.8773    0.9072 H   0  0  0  0  0  0  0  0  0  0  0  0
    0.6044   -0.3639    0.8362 H   0  0  0  0  0  0  0  0  0  0  0  0
    1.9535    1.6326   -0.8497 H   0  0  0  0  0  0  0  0  0  0  0  0
  1  2  1  0  0  0  0
  1  9  1  0  0  0  0
  1 12  1  0  0  0  0
  1 13  1  0  0  0  0
  2  3  1  0  0  0  0
  2  6  1  0  0  0  0
  2 14  1  0  0  0  0
  3  4  2  0  0  0  0
  3  5  1  0  0  0  0
  6  7  2  0  0  0  0
  6  8  1  0  0  0  0
  9 10  1  0  0  0  0
  9 11  1  0  0  0  0
  9 15  1  0  0  0  0
M  END
$$$$
ZINC13169337
 OpenBabel01252620473D

 34 35  0  0  0  0  0  0  0  0999 V2000
    6.2605    7.1224    0.1874 C   0  0  0  0  0  0  0  0  0  0  0  0
    7.4760    7.7616    0.2890 C   0  0  0  0  0  0  0  0  0  0  0  0
    8.6481    7.0198    0.3787 C   0  0  0  0  0  0  0  0  0  0  0  0
    8.5981    5.6307    0.3721 C   0  0  0  0  0  0  0  0  0  0  0  0
    7.3862    4.9840    0.2766 C   0  0  0  0  0  0  0  0  0  0  0  0
    6.2055    5.7261    0.1863 C   0  0  0  0  0  0  0  0  0  0  0  0
    4.9045    5.0370    0.0839 C   0  0  0  0  0  0  0  0  0  0  0  0
    4.8589    3.8219    0.0780 O   0  0  0  0  0  0  0  0  0  0  0  0
    3.7670    5.7545   -0.0031 N   0  0  0  0  0  0  0  0  0  0  0  0
    2.5276    5.1053    0.0112 C   0  0  0  0  0  0  0  0  0  0  0  0
    1.4681    5.6204   -0.7213 C   0  0  0  0  0  0  0  0  0  0  0  0
    0.2298    4.9751   -0.7092 C   0  0  0  0  0  0  0  0  0  0  0  0
    0.0590    3.8123    0.0399 C   0  0  0  0  0  0  0  0  0  0  0  0
    1.1257    3.2977    0.7747 C   0  0  0  0  0  0  0  0  0  0  0  0
    2.3595    3.9514    0.7626 C   0  0  0  0  0  0  0  0  0  0  0  0
    0.9493    2.0652    1.5704 C   0  0  0  0  0  0  0  0  0  0  0  0
    1.8794    1.6173    2.2105 O   0  0  0  0  0  0  0  0  0  0  0  0
   -0.8982    5.5247   -1.4894 C   0  0  0  0  0  0  0  0  0  0  0  0
   -0.7486    6.5381   -2.1421 O   0  0  0  0  0  0  0  0  0  0  0  0
    9.8444    7.6535    0.4733 O   0  0  0  0  0  0  0  0  0  0  0  0
    9.8234    9.0823    0.4745 C   0  0  0  0  0  0  0  0  0  0  0  0
    9.2481    9.5412   -0.7153 F   0  0  0  0  0  0  0  0  0  0  0  0
    9.0702    9.5368    1.5623 F   0  0  0  0  0  0  0  0  0  0  0  0
    5.3507    7.6995    0.1130 H   0  0  0  0  0  0  0  0  0  0  0  0
    7.5190    8.8407    0.2948 H   0  0  0  0  0  0  0  0  0  0  0  0
    9.5110    5.0579    0.4415 H   0  0  0  0  0  0  0  0  0  0  0  0
    7.3482    3.9046    0.2719 H   0  0  0  0  0  0  0  0  0  0  0  0
    3.8074    6.7209   -0.0758 H   0  0  0  0  0  0  0  0  0  0  0  0
    1.6012    6.5212   -1.3019 H   0  0  0  0  0  0  0  0  0  0  0  0
   -0.8977    3.3114    0.0513 H   0  0  0  0  0  0  0  0  0  0  0  0
    3.1851    3.5558    1.3356 H   0  0  0  0  0  0  0  0  0  0  0  0
   10.8425    9.4606    0.5548 H   0  0  0  0  0  0  0  0  0  0  0  0
   -0.2429    1.4383    1.5859 O   0  0  0  0  0  1  0  0  0  0  0  0
   -2.0926    4.9018   -1.4769 O   0  0  0  0  0  1  0  0  0  0  0  0
  1  6  2  0  0  0  0
  1  2  1  0  0  0  0
  1 24  1  0  0  0  0
  2  3  2  0  0  0  0
  2 25  1  0  0  0  0
  3  4  1  0  0  0  0
  3 20  1  0  0  0  0
  4  5  2  0  0  0  0
  4 26  1  0  0  0  0
  5  6  1  0  0  0  0
  5 27  1  0  0  0  0
  6  7  1  0  0  0  0
  7  8  2  0  0  0  0
  7  9  1  0  0  0  0
  9 10  1  0  0  0  0
  9 28  1  0  0  0  0
 10 15  2  0  0  0  0
 10 11  1  0  0  0  0
 11 12  2  0  0  0  0
 11 29  1  0  0  0  0
 12 13  1  0  0  0  0
 12 18  1  0  0  0  0
 13 14  2  0  0  0  0
 13 30  1  0  0  0  0
 14 15  1  0  0  0  0
 14 16  1  0  0  0  0
 15 31  1  0  0  0  0
 16 17  2  0  0  0  0
 16 33  1  0  0  0  0
 18 19  2  0  0  0  0
 18 34  1  0  0  0  0
 20 21  1  0  0  0  0
 21 22  1  0  0  0  0
 21 23  1  0  0  0  0
 21 32  1  0  0  0  0
M  END
$$$$
ZINC35698587
 OpenBabel01252620473D

 27 28  0  0  0  0  0  0  0  0999 V2000
   -0.0178    1.4608    0.0101 C   0  0  0  0  0  0  0  0  0  0  0  0
    0.0021   -0.0041    0.0020 N   0  0  0  0  0  0  0  0  0  0  0  0
    1.2806   -0.7192   -0.0140 C   0  0  0  0  0  0  0  0  0  0  0  0
   -1.1558   -0.6938    0.0094 C   0  0  0  0  0  0  0  0  0  0  0  0
   -2.2142   -0.1017    0.0227 O   0  0  0  0  0  0  0  0  0  0  0  0
   -1.1354   -2.2006    0.0011 C   0  0  0  0  0  0  0  0  0  0  0  0
   -2.5098   -2.7077    0.0115 N   0  0  0  0  0  0  0  0  0  0  0  0
   -3.1483   -2.9476    1.1975 C   0  0  0  0  0  0  0  0  0  0  0  0
   -2.5277   -2.7231    2.3747 O   0  5  0  0  0  0  0  0  0  0  0  0
   -4.4333   -3.4211    1.1604 C   0  0  0  0  0  0  0  0  0  0  0  0
   -5.1003   -3.6621   -0.0679 C   0  0  0  0  0  0  0  0  0  0  0  0
   -6.4113   -4.1456    0.0482 C   0  0  0  0  0  0  0  0  0  0  0  0
   -6.9555   -4.3505    1.2663 C   0  0  0  0  0  0  0  0  0  0  0  0
   -5.6428   -3.8716    2.3769 S   0  0  0  0  0  0  0  0  0  0  0  0
   -4.3919   -3.3970   -1.1942 N   0  0  0  0  0  0  0  0  0  0  0  0
   -3.1576   -2.9364   -1.1446 C   0  0  0  0  0  0  0  0  0  0  0  0
   -2.3411   -2.6227   -2.6163 S   0  0  0  0  0  0  0  0  0  0  0  0
    1.0048    1.8381    0.0023 H   0  0  0  0  0  0  0  0  0  0  0  0
   -0.5450    1.8219   -0.8730 H   0  0  0  0  0  0  0  0  0  0  0  0
   -0.5280    1.8123    0.9069 H   0  0  0  0  0  0  0  0  0  0  0  0
    1.6074   -0.9021    1.0096 H   0  0  0  0  0  0  0  0  0  0  0  0
    1.1583   -1.6705   -0.5318 H   0  0  0  0  0  0  0  0  0  0  0  0
    2.0272   -0.1171   -0.5318 H   0  0  0  0  0  0  0  0  0  0  0  0
   -0.6252   -2.5521   -0.8957 H   0  0  0  0  0  0  0  0  0  0  0  0
   -0.6082   -2.5617    0.8841 H   0  0  0  0  0  0  0  0  0  0  0  0
   -6.9881   -4.3547   -0.8406 H   0  0  0  0  0  0  0  0  0  0  0  0
   -7.9429   -4.7144    1.5092 H   0  0  0  0  0  0  0  0  0  0  0  0
  1  2  1  0  0  0  0
  1 18  1  0  0  0  0
  1 19  1  0  0  0  0
  1 20  1  0  0  0  0
  2  3  1  0  0  0  0
  2  4  1  0  0  0  0
  3 21  1  0  0  0  0
  3 22  1  0  0  0  0
  3 23  1  0  0  0  0
  4  5  2  0  0  0  0
  4  6  1  0  0  0  0
  6  7  1  0  0  0  0
  6 24  1  0  0  0  0
  6 25  1  0  0  0  0
  7 16  1  0  0  0  0
  7  8  1  0  0  0  0
  8  9  1  0  0  0  0
  8 10  2  0  0  0  0
 10 14  1  0  0  0  0
 10 11  1  0  0  0  0
 11 12  1  0  0  0  0
 11 15  2  0  0  0  0
 12 13  2  0  0  0  0
 12 26  1  0  0  0  0
 13 14  1  0  0  0  0
 13 27  1  0  0  0  0
 15 16  1  0  0  0  0
 16 17  2  0  0  0  0
M  CHG  1   9  -1
M  END
$$$$
ZINC50984153
 OpenBabel01252620473D

 50 51  0  0  1  0  0  0  0  0999 V2000
   -0.0184    1.5028    0.0103 C   0  0  0  0  0  0  0  0  0  0  0  0
    0.0021   -0.0041    0.0020 C   0  0  0  0  0  0  0  0  0  0  0  0
    0.0080   -0.8237   -1.1409 C   0  0  0  0  0  0  0  0  0  0  0  0
    0.0273   -2.1079   -0.7353 C   0  0  0  0  0  0  0  0  0  0  0  0
    0.0335   -2.1190    0.6064 O   0  0  0  0  0  0  0  0  0  0  0  0
    0.0230   -0.7748    1.0524 N   0  0  0  0  0  0  0  0  0  0  0  0
    0.0393   -3.3197   -1.6311 C   0  0  0  0  0  0  0  0  0  0  0  0
   -0.0076   -0.2673   -2.8126 S   0  0  0  0  0  0  0  0  0  0  0  0
   -0.5474   -1.3282   -3.5887 O   0  0  0  0  0  0  0  0  0  0  0  0
   -0.5765    1.0348   -2.8020 O   0  0  0  0  0  0  0  0  0  0  0  0
    1.5698   -0.0907   -3.2847 N   0  0  0  0  0  0  0  0  0  0  0  0
    2.2700    1.1867   -3.0932 C   0  0  0  0  0  0  0  0  0  0  0  0
    3.5700    0.9262   -2.3257 C   0  0  0  0  0  0  0  0  0  0  0  0
    4.3893   -0.1352   -3.0633 C   0  0  0  0  0  0  0  0  0  0  0  0
    3.5955   -1.4421   -3.1263 C   0  0  1  0  0  0  0  0  0  0  0  0
    3.3603   -1.7741   -2.1151 H   0  0  0  0  0  0  0  0  0  0  0  0
    2.2977   -1.2104   -3.8974 C   0  0  0  0  0  0  0  0  0  0  0  0
    4.4163   -2.4961   -3.8237 C   0  0  0  0  0  0  0  0  0  0  0  0
    4.8231   -2.3024   -5.0898 O   0  5  0  0  0  0  0  0  0  0  0  0
    4.7463   -3.6461   -3.1701 C   0  0  0  0  0  0  0  0  0  0  0  0
    4.3128   -3.8525   -1.8210 C   0  0  0  0  0  0  0  0  0  0  0  0
    3.9690   -4.0163   -0.7508 N   0  0  0  0  0  0  0  0  0  0  0  0
    5.5471   -4.6743   -3.8504 C   0  0  0  0  0  0  0  0  0  0  0  0
    5.9154   -4.4989   -4.9966 O   0  0  0  0  0  0  0  0  0  0  0  0
    5.8733   -5.8112   -3.2043 N   0  0  0  0  0  0  0  0  0  0  0  0
    6.6713   -6.8358   -3.8822 C   0  0  0  0  0  0  0  0  0  0  0  0
    8.1576   -6.5017   -3.7398 C   0  0  0  0  0  0  0  0  0  0  0  0
    6.3926   -8.2007   -3.2495 C   0  0  0  0  0  0  0  0  0  0  0  0
    1.0042    1.8801    0.0026 H   0  0  0  0  0  0  0  0  0  0  0  0
   -0.5455    1.8639   -0.8728 H   0  0  0  0  0  0  0  0  0  0  0  0
   -0.5286    1.8543    0.9071 H   0  0  0  0  0  0  0  0  0  0  0  0
    1.0697   -3.5980   -1.8521 H   0  0  0  0  0  0  0  0  0  0  0  0
   -0.4610   -4.1477   -1.1290 H   0  0  0  0  0  0  0  0  0  0  0  0
   -0.4822   -3.0898   -2.5603 H   0  0  0  0  0  0  0  0  0  0  0  0
    2.5005    1.6261   -4.0637 H   0  0  0  0  0  0  0  0  0  0  0  0
    1.6386    1.8674   -2.5222 H   0  0  0  0  0  0  0  0  0  0  0  0
    4.1453    1.8497   -2.2606 H   0  0  0  0  0  0  0  0  0  0  0  0
    3.3351    0.5719   -1.3220 H   0  0  0  0  0  0  0  0  0  0  0  0
    4.6027    0.2092   -4.0752 H   0  0  0  0  0  0  0  0  0  0  0  0
    5.3261   -0.3046   -2.5324 H   0  0  0  0  0  0  0  0  0  0  0  0
    1.6845   -2.1107   -3.8568 H   0  0  0  0  0  0  0  0  0  0  0  0
    2.5304   -0.9708   -4.9350 H   0  0  0  0  0  0  0  0  0  0  0  0
    5.5797   -5.9510   -2.2904 H   0  0  0  0  0  0  0  0  0  0  0  0
    6.4048   -6.8639   -4.9387 H   0  0  0  0  0  0  0  0  0  0  0  0
    8.4241   -6.4737   -2.6832 H   0  0  0  0  0  0  0  0  0  0  0  0
    8.7513   -7.2641   -4.2441 H   0  0  0  0  0  0  0  0  0  0  0  0
    8.3562   -5.5293   -4.1905 H   0  0  0  0  0  0  0  0  0  0  0  0
    5.3337   -8.4388   -3.3509 H   0  0  0  0  0  0  0  0  0  0  0  0
    6.9863   -8.9631   -3.7538 H   0  0  0  0  0  0  0  0  0  0  0  0
    6.6591   -8.1727   -2.1929 H   0  0  0  0  0  0  0  0  0  0  0  0
  1  2  1  0  0  0  0
  1 29  1  0  0  0  0
  1 30  1  0  0  0  0
  1 31  1  0  0  0  0
  2  6  2  0  0  0  0
  2  3  1  0  0  0  0
  3  4  2  0  0  0  0
  3  8  1  0  0  0  0
  4  5  1  0  0  0  0
  4  7  1  0  0  0  0
  5  6  1  0  0  0  0
  7 32  1  0  0  0  0
  7 33  1  0  0  0  0
  7 34  1  0  0  0  0
  8  9  2  0  0  0  0
  8 10  2  0  0  0  0
  8 11  1  0  0  0  0
 11 17  1  0  0  0  0
 11 12  1  0  0  0  0
 12 13  1  0  0  0  0
 12 35  1  0  0  0  0
 12 36  1  0  0  0  0
 13 14  1  0  0  0  0
 13 37  1  0  0  0  0
 13 38  1  0  0  0  0
 14 15  1  0  0  0  0
 14 39  1  0  0  0  0
 14 40  1  0  0  0  0
 15 16  1  1  0  0  0
 15 17  1  0  0  0  0
 15 18  1  0  0  0  0
 17 41  1  0  0  0  0
 17 42  1  0  0  0  0
 18 19  1  0  0  0  0
 18 20  2  0  0  0  0
 20 21  1  0  0  0  0
 20 23  1  0  0  0  0
 21 22  3  0  0  0  0
 23 24  2  0  0  0  0
 23 25  1  0  0  0  0
 25 26  1  0  0  0  0
 25 43  1  0  0  0  0
 26 27  1  0  0  0  0
 26 28  1  0  0  0  0
 26 44  1  0  0  0  0
 27 45  1  0  0  0  0
 27 46  1  0  0  0  0
 27 47  1  0  0  0  0
 28 48  1  0  0  0  0
 28 49  1  0  0  0  0
 28 50  1  0  0  0  0
M  CHG  1  19  -1
M  END
$$$$
ZINC13245518
 OpenBabel01252620473D

 44 46  0  0  0  0  0  0  0  0999 V2000
   -2.6036    1.0529   -2.6506 C   0  0  0  0  0  0  0  0  0  0  0  0
   -3.0207    0.4184   -1.3489 C   0  0  0  0  0  0  0  0  0  0  0  0
   -2.2930    0.6789   -0.1823 C   0  0  0  0  0  0  0  0  0  0  0  0
   -2.6836    0.1045    0.9855 C   0  0  0  0  0  0  0  0  0  0  0  0
   -3.7686   -0.7130    0.9880 N   0  0  0  0  0  0  0  0  0  0  0  0
   -4.4542   -0.9515   -0.1698 C   0  0  0  0  0  0  0  0  0  0  0  0
   -4.0633   -0.3810   -1.3152 N   0  0  0  0  0  0  0  0  0  0  0  0
   -5.4541   -1.7759    0.1242 N   0  0  0  0  0  0  0  0  0  0  0  0
   -5.4280   -2.0683    1.4226 C   0  0  0  0  0  0  0  0  0  0  0  0
   -4.4171   -1.4433    1.9925 N   0  0  0  0  0  0  0  0  0  0  0  0
   -6.5677   -3.1266    2.2508 S   0  0  0  0  0  0  0  0  0  0  0  0
   -7.6996   -3.6645    0.9393 C   0  0  0  0  0  0  0  0  0  0  0  0
   -8.7392   -4.5879    1.5205 C   0  0  0  0  0  0  0  0  0  0  0  0
   -9.9788   -4.0896    1.8809 C   0  0  0  0  0  0  0  0  0  0  0  0
  -10.9351   -4.9295    2.4126 C   0  0  0  0  0  0  0  0  0  0  0  0
  -10.6500   -6.2848    2.5871 C   0  0  0  0  0  0  0  0  0  0  0  0
   -9.3977   -6.7808    2.2219 C   0  0  0  0  0  0  0  0  0  0  0  0
   -8.4520   -5.9310    1.6859 C   0  0  0  0  0  0  0  0  0  0  0  0
   -7.1254   -6.4564    1.2924 N   0  0  0  0  0  4  0  0  0  0  0  0
   -6.9087   -7.6543    1.3316 O   0  0  0  0  0  0  0  0  0  0  0  0
   -6.2504   -5.6908    0.9293 O   0  5  0  0  0  0  0  0  0  0  0  0
  -11.6700   -7.1908    3.1568 C   0  0  0  0  0  0  0  0  0  0  0  0
  -11.4189   -8.3705    3.3077 O   0  0  0  0  0  0  0  0  0  0  0  0
  -12.8783   -6.7086    3.5089 N   0  0  0  0  0  0  0  0  0  0  0  0
   -1.9245    0.3710    2.2598 C   0  0  0  0  0  0  0  0  0  0  0  0
   -1.0938    1.5907   -0.2196 C   0  0  0  0  0  0  0  0  0  0  0  0
    0.1453    0.7800   -0.4995 C   0  0  0  0  0  0  0  0  0  0  0  0
    0.0630   -0.4157   -0.6530 O   0  0  0  0  0  0  0  0  0  0  0  0
   -1.8966    0.4003   -3.1628 H   0  0  0  0  0  0  0  0  0  0  0  0
   -3.4812    1.2025   -3.2795 H   0  0  0  0  0  0  0  0  0  0  0  0
   -2.1313    2.0148   -2.4511 H   0  0  0  0  0  0  0  0  0  0  0  0
   -8.1898   -2.7943    0.5029 H   0  0  0  0  0  0  0  0  0  0  0  0
   -7.1376   -4.1902    0.1673 H   0  0  0  0  0  0  0  0  0  0  0  0
  -10.1982   -3.0408    1.7454 H   0  0  0  0  0  0  0  0  0  0  0  0
  -11.9025   -4.5395    2.6928 H   0  0  0  0  0  0  0  0  0  0  0  0
   -9.1708   -7.8284    2.3544 H   0  0  0  0  0  0  0  0  0  0  0  0
  -13.0787   -5.7672    3.3885 H   0  0  0  0  0  0  0  0  0  0  0  0
  -13.5476   -7.3030    3.8827 H   0  0  0  0  0  0  0  0  0  0  0  0
   -2.3489    1.2413    2.7603 H   0  0  0  0  0  0  0  0  0  0  0  0
   -1.9985   -0.4969    2.9151 H   0  0  0  0  0  0  0  0  0  0  0  0
   -0.8771    0.5613    2.0257 H   0  0  0  0  0  0  0  0  0  0  0  0
   -0.9895    2.0934    0.7420 H   0  0  0  0  0  0  0  0  0  0  0  0
   -1.2269    2.3341   -1.0056 H   0  0  0  0  0  0  0  0  0  0  0  0
    1.3396    1.3868   -0.5838 O   0  0  0  0  0  1  0  0  0  0  0  0
  1  2  1  0  0  0  0
  1 29  1  0  0  0  0
  1 30  1  0  0  0  0
  1 31  1  0  0  0  0
  2  7  2  0  0  0  0
  2  3  1  0  0  0  0
  3  4  2  0  0  0  0
  3 26  1  0  0  0  0
  4  5  1  0  0  0  0
  4 25  1  0  0  0  0
  5 10  1  0  0  0  0
  5  6  1  0  0  0  0
  6  7  1  0  0  0  0
  6  8  2  0  0  0  0
  8  9  1  0  0  0  0
  9 10  2  0  0  0  0
  9 11  1  0  0  0  0
 11 12  1  0  0  0  0
 12 13  1  0  0  0  0
 12 32  1  0  0  0  0
 12 33  1  0  0  0  0
 13 18  2  0  0  0  0
 13 14  1  0  0  0  0
 14 15  2  0  0  0  0
 14 34  1  0  0  0  0
 15 16  1  0  0  0  0
 15 35  1  0  0  0  0
 16 17  2  0  0  0  0
 16 22  1  0  0  0  0
 17 18  1  0  0  0  0
 17 36  1  0  0  0  0
 18 19  1  0  0  0  0
 19 20  2  0  0  0  0
 19 21  1  0  0  0  0
 22 23  2  0  0  0  0
 22 24  1  0  0  0  0
 24 37  1  0  0  0  0
 24 38  1  0  0  0  0
 25 39  1  0  0  0  0
 25 40  1  0  0  0  0
 25 41  1  0  0  0  0
 26 27  1  0  0  0  0
 26 42  1  0  0  0  0
 26 43  1  0  0  0  0
 27 28  2  0  0  0  0
 27 44  1  0  0  0  0
M  CHG  1  21  -1
M  END
$$$$
ZINC40126570
 OpenBabel01252620473D

 55 58  0  0  1  0  0  0  0  0999 V2000
   -0.1573    1.4240   -0.0016 C   0  0  0  0  0  0  0  0  0  0  0  0
   -0.1209    0.1145    0.0067 C   0  0  0  0  0  0  0  0  0  0  0  0
   -1.4046   -0.6749    0.0064 C   0  0  0  0  0  0  0  0  0  0  0  0
   -1.3075   -1.7418   -0.9393 O   0  0  0  0  0  0  0  0  0  0  0  0
   -2.3886   -2.5556   -1.0645 C   0  0  0  0  0  0  0  0  0  0  0  0
   -3.5220   -2.3284   -0.2971 C   0  0  0  0  0  0  0  0  0  0  0  0
   -4.6198   -3.1567   -0.4265 C   0  0  0  0  0  0  0  0  0  0  0  0
   -4.5898   -4.2117   -1.3201 C   0  0  0  0  0  0  0  0  0  0  0  0
   -3.4616   -4.4404   -2.0856 C   0  0  0  0  0  0  0  0  0  0  0  0
   -2.3631   -3.6113   -1.9639 C   0  0  0  0  0  0  0  0  0  0  0  0
   -3.4322   -5.5913   -3.0580 C   0  0  2  0  0  0  0  0  0  0  0  0
   -2.4068   -5.7945   -3.3668 H   0  0  0  0  0  0  0  0  0  0  0  0
   -4.2848   -5.2740   -4.2643 C   0  0  0  0  0  0  0  0  0  0  0  0
   -5.2596   -6.2120   -4.3114 C   0  0  0  0  0  0  0  0  0  0  0  0
   -5.0893   -7.1463   -3.1785 C   0  0  0  0  0  0  0  0  0  0  0  0
   -5.8071   -8.0985   -2.9460 O   0  0  0  0  0  0  0  0  0  0  0  0
   -4.0202   -6.7870   -2.4427 N   0  0  0  0  0  0  0  0  0  0  0  0
   -6.2346   -6.2832   -5.2464 O   0  5  0  0  0  0  0  0  0  0  0  0
   -4.0935   -4.1641   -5.2025 C   0  0  0  0  0  0  0  0  0  0  0  0
   -4.9220   -3.2758   -5.2710 O   0  0  0  0  0  0  0  0  0  0  0  0
   -2.8936   -4.1240   -6.0657 C   0  0  0  0  0  0  0  0  0  0  0  0
   -2.0042   -5.2011   -6.0802 C   0  0  0  0  0  0  0  0  0  0  0  0
   -0.8862   -5.1604   -6.8870 C   0  0  0  0  0  0  0  0  0  0  0  0
   -0.6420   -4.0557   -7.6828 C   0  0  0  0  0  0  0  0  0  0  0  0
   -1.5200   -2.9801   -7.6748 C   0  0  0  0  0  0  0  0  0  0  0  0
   -2.6484   -3.0125   -6.8732 C   0  0  0  0  0  0  0  0  0  0  0  0
   -1.2745   -1.8972   -8.4585 O   0  0  0  0  0  0  0  0  0  0  0  0
   -0.0951   -1.9338   -9.2647 C   0  0  0  0  0  0  0  0  0  0  0  0
    0.0100   -0.6575  -10.0592 C   0  0  0  0  0  0  0  0  0  0  0  0
   -0.5705   -0.5731  -11.3110 C   0  0  0  0  0  0  0  0  0  0  0  0
   -0.4744    0.5971  -12.0401 C   0  0  0  0  0  0  0  0  0  0  0  0
    0.2029    1.6841  -11.5170 C   0  0  0  0  0  0  0  0  0  0  0  0
    0.7837    1.5991  -10.2642 C   0  0  0  0  0  0  0  0  0  0  0  0
    0.6821    0.4302   -9.5336 C   0  0  0  0  0  0  0  0  0  0  0  0
    0.3245    3.1541  -12.4325 Cl  0  0  0  0  0  0  0  0  0  0  0  0
    0.7626    1.9898   -0.0014 H   0  0  0  0  0  0  0  0  0  0  0  0
   -1.1072    1.9378   -0.0130 H   0  0  0  0  0  0  0  0  0  0  0  0
    0.8290   -0.3993    0.0137 H   0  0  0  0  0  0  0  0  0  0  0  0
   -1.5787   -1.0857    1.0009 H   0  0  0  0  0  0  0  0  0  0  0  0
   -2.2330   -0.0214   -0.2669 H   0  0  0  0  0  0  0  0  0  0  0  0
   -3.5458   -1.5049    0.4012 H   0  0  0  0  0  0  0  0  0  0  0  0
   -5.5021   -2.9805    0.1709 H   0  0  0  0  0  0  0  0  0  0  0  0
   -5.4492   -4.8582   -1.4199 H   0  0  0  0  0  0  0  0  0  0  0  0
   -1.4835   -3.7878   -2.5654 H   0  0  0  0  0  0  0  0  0  0  0  0
   -3.6960   -7.2376   -1.6472 H   0  0  0  0  0  0  0  0  0  0  0  0
   -2.1917   -6.0651   -5.4599 H   0  0  0  0  0  0  0  0  0  0  0  0
   -0.1991   -5.9936   -6.8972 H   0  0  0  0  0  0  0  0  0  0  0  0
    0.2351   -4.0296   -8.3125 H   0  0  0  0  0  0  0  0  0  0  0  0
   -3.3346   -2.1785   -6.8697 H   0  0  0  0  0  0  0  0  0  0  0  0
    0.7803   -2.0357   -8.6234 H   0  0  0  0  0  0  0  0  0  0  0  0
   -0.1471   -2.7828   -9.9462 H   0  0  0  0  0  0  0  0  0  0  0  0
   -1.0989   -1.4219  -11.7194 H   0  0  0  0  0  0  0  0  0  0  0  0
   -0.9277    0.6628  -13.0182 H   0  0  0  0  0  0  0  0  0  0  0  0
    1.3128    2.4472   -9.8554 H   0  0  0  0  0  0  0  0  0  0  0  0
    1.1313    0.3652   -8.5536 H   0  0  0  0  0  0  0  0  0  0  0  0
  1  2  2  0  0  0  0
  1 36  1  0  0  0  0
  1 37  1  0  0  0  0
  2  3  1  0  0  0  0
  2 38  1  0  0  0  0
  3  4  1  0  0  0  0
  3 39  1  0  0  0  0
  3 40  1  0  0  0  0
  4  5  1  0  0  0  0
  5 10  2  0  0  0  0
  5  6  1  0  0  0  0
  6  7  2  0  0  0  0
  6 41  1  0  0  0  0
  7  8  1  0  0  0  0
  7 42  1  0  0  0  0
  8  9  2  0  0  0  0
  8 43  1  0  0  0  0
  9 10  1  0  0  0  0
  9 11  1  0  0  0  0
 10 44  1  0  0  0  0
 11 12  1  6  0  0  0
 11 17  1  0  0  0  0
 11 13  1  0  0  0  0
 13 14  2  0  0  0  0
 13 19  1  0  0  0  0
 14 15  1  0  0  0  0
 14 18  1  0  0  0  0
 15 16  2  0  0  0  0
 15 17  1  0  0  0  0
 17 45  1  0  0  0  0
 19 20  2  0  0  0  0
 19 21  1  0  0  0  0
 21 26  2  0  0  0  0
 21 22  1  0  0  0  0
 22 23  2  0  0  0  0
 22 46  1  0  0  0  0
 23 24  1  0  0  0  0
 23 47  1  0  0  0  0
 24 25  2  0  0  0  0
 24 48  1  0  0  0  0
 25 26  1  0  0  0  0
 25 27  1  0  0  0  0
 26 49  1  0  0  0  0
 27 28  1  0  0  0  0
 28 29  1  0  0  0  0
 28 50  1  0  0  0  0
 28 51  1  0  0  0  0
 29 34  2  0  0  0  0
 29 30  1  0  0  0  0
 30 31  2  0  0  0  0
 30 52  1  0  0  0  0
 31 32  1  0  0  0  0
 31 53  1  0  0  0  0
 32 33  2  0  0  0  0
 32 35  1  0  0  0  0
 33 34  1  0  0  0  0
 33 54  1  0  0  0  0
 34 55  1  0  0  0  0
M  CHG  1  18  -1
M  END
$$$$
ZINC13013596
 OpenBabel01252620473D

 37 39  0  0  0  0  0  0  0  0999 V2000
    4.3153    2.6285   -0.0115 C   0  0  0  0  0  0  0  0  0  0  0  0
    3.1150    3.5396   -0.0032 C   0  0  0  0  0  0  0  0  0  0  0  0
    1.8139    3.1417    0.0016 C   0  0  0  0  0  0  0  0  0  0  0  0
    1.0201    4.3770    0.0163 C   0  0  0  0  0  0  0  0  0  0  0  0
    1.9056    5.3869    0.0131 C   0  0  0  0  0  0  0  0  0  0  0  0
    3.1478    4.8803   -0.0021 O   0  0  0  0  0  0  0  0  0  0  0  0
    1.3049    1.7533   -0.0010 C   0  0  0  0  0  0  0  0  0  0  0  0
    2.0276    0.6566   -0.0138 N   0  0  0  0  0  0  0  0  0  0  0  0
    1.2619   -0.3753   -0.0120 N   0  0  0  0  0  0  0  0  0  0  0  0
    0.0021   -0.0041    0.0020 C   0  0  0  0  0  0  0  0  0  0  0  0
   -0.0165    1.3657    0.0096 N   0  0  0  0  0  0  0  0  0  0  0  0
   -1.1436    2.1977    0.0196 N   0  0  0  0  0  0  0  0  0  0  0  0
   -1.6599    2.5775    1.1485 C   0  0  0  0  0  0  0  0  0  0  0  0
   -2.8452    3.4525    1.1591 C   0  0  0  0  0  0  0  0  0  0  0  0
   -3.4133    3.8806   -0.0458 C   0  0  0  0  0  0  0  0  0  0  0  0
   -4.5292    4.6971   -0.0289 C   0  0  0  0  0  0  0  0  0  0  0  0
   -5.0787    5.1007    1.1791 C   0  0  0  0  0  0  0  0  0  0  0  0
   -4.5167    4.6849    2.3771 C   0  0  0  0  0  0  0  0  0  0  0  0
   -3.4041    3.8637    2.3742 C   0  0  0  0  0  0  0  0  0  0  0  0
   -2.8579    3.4595    3.5418 F   0  0  0  0  0  0  0  0  0  0  0  0
   -5.0576    5.0828    3.5495 F   0  0  0  0  0  0  0  0  0  0  0  0
   -6.1659    5.9027    1.1889 F   0  0  0  0  0  0  0  0  0  0  0  0
   -5.0826    5.1065   -1.1914 F   0  0  0  0  0  0  0  0  0  0  0  0
   -2.8759    3.4929   -1.2231 F   0  0  0  0  0  0  0  0  0  0  0  0
   -1.4017   -1.0689    0.0088 S   0  0  0  0  0  0  0  0  0  0  0  0
   -0.5750   -2.6790   -0.0072 C   0  0  0  0  0  0  0  0  0  0  0  0
   -1.6095   -3.7749   -0.0039 C   0  0  0  0  0  0  0  0  0  0  0  0
   -2.7850   -3.4960    0.0081 O   0  0  0  0  0  0  0  0  0  0  0  0
    4.6000    2.4120   -1.0411 H   0  0  0  0  0  0  0  0  0  0  0  0
    5.1452    3.1162    0.5000 H   0  0  0  0  0  0  0  0  0  0  0  0
    4.0691    1.6984    0.5007 H   0  0  0  0  0  0  0  0  0  0  0  0
   -0.0569    4.4572    0.0275 H   0  0  0  0  0  0  0  0  0  0  0  0
    1.6575    6.4380    0.0217 H   0  0  0  0  0  0  0  0  0  0  0  0
   -1.2206    2.2520    2.0799 H   0  0  0  0  0  0  0  0  0  0  0  0
    0.0401   -2.7627   -0.9032 H   0  0  0  0  0  0  0  0  0  0  0  0
    0.0560   -2.7723    0.8767 H   0  0  0  0  0  0  0  0  0  0  0  0
   -1.2249   -5.0609   -0.0142 O   0  0  0  0  0  1  0  0  0  0  0  0
  1  2  1  0  0  0  0
  1 29  1  0  0  0  0
  1 30  1  0  0  0  0
  1 31  1  0  0  0  0
  2  6  1  0  0  0  0
  2  3  2  0  0  0  0
  3  4  1  0  0  0  0
  3  7  1  0  0  0  0
  4  5  2  0  0  0  0
  4 32  1  0  0  0  0
  5  6  1  0  0  0  0
  5 33  1  0  0  0  0
  7 11  1  0  0  0  0
  7  8  2  0  0  0  0
  8  9  1  0  0  0  0
  9 10  2  0  0  0  0
 10 11  1  0  0  0  0
 10 25  1  0  0  0  0
 11 12  1  0  0  0  0
 12 13  2  0  0  0  0
 13 14  1  0  0  0  0
 13 34  1  0  0  0  0
 14 19  2  0  0  0  0
 14 15  1  0  0  0  0
 15 16  2  0  0  0  0
 15 24  1  0  0  0  0
 16 17  1  0  0  0  0
 16 23  1  0  0  0  0
 17 18  2  0  0  0  0
 17 22  1  0  0  0  0
 18 19  1  0  0  0  0
 18 21  1  0  0  0  0
 19 20  1  0  0  0  0
 25 26  1  0  0  0  0
 26 27  1  0  0  0  0
 26 35  1  0  0  0  0
 26 36  1  0  0  0  0
 27 28  2  0  0  0  0
 27 37  1  0  0  0  0
M  END
$$$$
ZINC33473449
 OpenBabel01252620473D

 59 62  0  0  1  0  0  0  0  0999 V2000
   -9.6728    4.8396    7.4143 C   0  0  0  0  0  0  0  0  0  0  0  0
   -8.9583    4.8689    6.0617 C   0  0  0  0  0  0  0  0  0  0  0  0
   -7.4579    4.6560    6.2727 C   0  0  0  0  0  0  0  0  0  0  0  0
   -6.7906    4.6833    5.0094 O   0  0  0  0  0  0  0  0  0  0  0  0
   -5.4429    4.5082    5.0196 C   0  0  0  0  0  0  0  0  0  0  0  0
   -4.7774    4.3139    6.2234 C   0  0  0  0  0  0  0  0  0  0  0  0
   -3.4060    4.1351    6.2414 C   0  0  0  0  0  0  0  0  0  0  0  0
   -2.6885    4.1477    5.0635 C   0  0  0  0  0  0  0  0  0  0  0  0
   -3.3487    4.3425    3.8462 C   0  0  0  0  0  0  0  0  0  0  0  0
   -4.7341    4.5288    3.8314 C   0  0  0  0  0  0  0  0  0  0  0  0
   -2.5865    4.3574    2.5851 C   0  0  0  0  0  0  0  0  0  0  0  0
   -2.9826    3.5614    1.5304 C   0  0  0  0  0  0  0  0  0  0  0  0
   -2.4091    3.5550    0.1322 C   0  0  2  0  0  0  0  0  0  0  0  0
   -2.5117    4.5336   -0.3595 H   0  0  0  0  0  0  0  0  0  0  0  0
   -3.1544    2.5437   -0.6228 N   0  0  0  0  0  0  0  0  0  0  0  0
   -4.0732    1.9852    0.1828 C   0  0  0  0  0  0  0  0  0  0  0  0
   -4.8493    1.1120   -0.1473 O   0  0  0  0  0  0  0  0  0  0  0  0
   -4.0000    2.5930    1.5394 C   0  0  0  0  0  0  0  0  0  0  0  0
   -4.7001    2.3012    2.4918 O   0  5  0  0  0  0  0  0  0  0  0  0
   -2.9328    2.1973   -2.0289 C   0  0  0  0  0  0  0  0  0  0  0  0
   -1.8981    1.0739   -2.1205 C   0  0  0  0  0  0  0  0  0  0  0  0
   -1.6667    0.7122   -3.5890 C   0  0  0  0  0  0  0  0  0  0  0  0
   -0.6760   -0.3634   -3.6767 N   0  0  0  0  0  0  0  0  0  0  0  0
   -0.9336   -1.7078   -3.6682 C   0  0  0  0  0  0  0  0  0  0  0  0
    0.2550   -2.3330   -3.7675 C   0  0  0  0  0  0  0  0  0  0  0  0
    1.2123   -1.3959   -3.8348 N   0  0  0  0  0  0  0  0  0  0  0  0
    0.6616   -0.2138   -3.7868 C   0  0  0  0  0  0  0  0  0  0  0  0
   -0.9469    3.1927    0.1759 C   0  0  0  0  0  0  0  0  0  0  0  0
   -0.5668    1.8744    0.3456 C   0  0  0  0  0  0  0  0  0  0  0  0
    0.7737    1.5416    0.3907 C   0  0  0  0  0  0  0  0  0  0  0  0
    1.7362    2.5277    0.2552 C   0  0  0  0  0  0  0  0  0  0  0  0
    1.3543    3.8470    0.0800 C   0  0  0  0  0  0  0  0  0  0  0  0
    0.0132    4.1781    0.0406 C   0  0  0  0  0  0  0  0  0  0  0  0
    3.0470    2.2029    0.2944 F   0  0  0  0  0  0  0  0  0  0  0  0
   -1.5006    5.1499    2.4620 O   0  0  0  0  0  0  0  0  0  0  0  0
  -10.7515    4.9927    7.2625 H   0  0  0  0  0  0  0  0  0  0  0  0
   -9.2756    5.6398    8.0562 H   0  0  0  0  0  0  0  0  0  0  0  0
   -9.5050    3.8653    7.8966 H   0  0  0  0  0  0  0  0  0  0  0  0
   -9.3555    4.0687    5.4198 H   0  0  0  0  0  0  0  0  0  0  0  0
   -9.1261    5.8432    5.5794 H   0  0  0  0  0  0  0  0  0  0  0  0
   -7.0607    5.4562    6.9145 H   0  0  0  0  0  0  0  0  0  0  0  0
   -7.2900    3.6818    6.7551 H   0  0  0  0  0  0  0  0  0  0  0  0
   -5.3332    4.3029    7.1494 H   0  0  0  0  0  0  0  0  0  0  0  0
   -2.8953    3.9846    7.1810 H   0  0  0  0  0  0  0  0  0  0  0  0
   -1.6179    4.0070    5.0813 H   0  0  0  0  0  0  0  0  0  0  0  0
   -5.2500    4.6842    2.8953 H   0  0  0  0  0  0  0  0  0  0  0  0
   -3.8794    1.8614   -2.4773 H   0  0  0  0  0  0  0  0  0  0  0  0
   -2.5637    3.0808   -2.5704 H   0  0  0  0  0  0  0  0  0  0  0  0
   -0.9515    1.4098   -1.6720 H   0  0  0  0  0  0  0  0  0  0  0  0
   -2.2672    0.1904   -1.5790 H   0  0  0  0  0  0  0  0  0  0  0  0
   -2.6133    0.3763   -4.0374 H   0  0  0  0  0  0  0  0  0  0  0  0
   -1.2976    1.5957   -4.1305 H   0  0  0  0  0  0  0  0  0  0  0  0
   -1.9038   -2.1769   -3.5962 H   0  0  0  0  0  0  0  0  0  0  0  0
    0.4102   -3.4015   -3.7891 H   0  0  0  0  0  0  0  0  0  0  0  0
    1.1885    0.7281   -3.8261 H   0  0  0  0  0  0  0  0  0  0  0  0
   -1.3177    1.1049    0.4472 H   0  0  0  0  0  0  0  0  0  0  0  0
    1.0705    0.5121    0.5270 H   0  0  0  0  0  0  0  0  0  0  0  0
    2.1042    4.6169   -0.0261 H   0  0  0  0  0  0  0  0  0  0  0  0
   -0.2850    5.2072   -0.0957 H   0  0  0  0  0  0  0  0  0  0  0  0
  1  2  1  0  0  0  0
  1 36  1  0  0  0  0
  1 37  1  0  0  0  0
  1 38  1  0  0  0  0
  2  3  1  0  0  0  0
  2 39  1  0  0  0  0
  2 40  1  0  0  0  0
  3  4  1  0  0  0  0
  3 41  1  0  0  0  0
  3 42  1  0  0  0  0
  4  5  1  0  0  0  0
  5 10  2  0  0  0  0
  5  6  1  0  0  0  0
  6  7  2  0  0  0  0
  6 43  1  0  0  0  0
  7  8  1  0  0  0  0
  7 44  1  0  0  0  0
  8  9  2  0  0  0  0
  8 45  1  0  0  0  0
  9 10  1  0  0  0  0
  9 11  1  0  0  0  0
 10 46  1  0  0  0  0
 11 12  1  0  0  0  0
 11 35  2  0  0  0  0
 12 18  2  0  0  0  0
 12 13  1  0  0  0  0
 13 14  1  6  0  0  0
 13 15  1  0  0  0  0
 13 28  1  0  0  0  0
 15 16  1  0  0  0  0
 15 20  1  0  0  0  0
 16 17  2  0  0  0  0
 16 18  1  0  0  0  0
 18 19  1  0  0  0  0
 20 21  1  0  0  0  0
 20 47  1  0  0  0  0
 20 48  1  0  0  0  0
 21 22  1  0  0  0  0
 21 49  1  0  0  0  0
 21 50  1  0  0  0  0
 22 23  1  0  0  0  0
 22 51  1  0  0  0  0
 22 52  1  0  0  0  0
 23 27  1  0  0  0  0
 23 24  1  0  0  0  0
 24 25  2  0  0  0  0
 24 53  1  0  0  0  0
 25 26  1  0  0  0  0
 25 54  1  0  0  0  0
 26 27  2  0  0  0  0
 27 55  1  0  0  0  0
 28 33  2  0  0  0  0
 28 29  1  0  0  0  0
 29 30  2  0  0  0  0
 29 56  1  0  0  0  0
 30 31  1  0  0  0  0
 30 57  1  0  0  0  0
 31 32  2  0  0  0  0
 31 34  1  0  0  0  0
 32 33  1  0  0  0  0
 32 58  1  0  0  0  0
 33 59  1  0  0  0  0
M  CHG  1  19  -1
M  END
$$$$
ZINC63153831
 OpenBabel01252620473D

 31 31  0  0  0  0  0  0  0  0999 V2000
   -0.1953    1.4528    1.5954 C   0  0  0  0  0  0  0  0  0  0  0  0
   -0.1592   -0.0708    1.4599 C   0  0  0  0  0  0  0  0  0  0  0  0
   -1.4615   -0.5496    1.1181 O   0  0  0  0  0  0  0  0  0  0  0  0
   -1.5380   -1.9685    0.9669 C   0  0  0  0  0  0  0  0  0  0  0  0
   -2.9700   -2.3662    0.6031 C   0  0  0  0  0  0  0  0  0  0  0  0
   -3.0670   -4.1674    0.4112 S   0  0  0  0  0  0  0  0  0  0  0  0
   -2.3280   -4.5784   -0.7308 O   0  0  0  0  0  0  0  0  0  0  0  0
   -2.8743   -4.8045    1.6666 O   0  0  0  0  0  0  0  0  0  0  0  0
   -4.6482   -4.4693    0.0224 N   0  0  0  0  0  2  0  0  0  0  0  0
   -5.0987   -5.7778   -0.0851 C   0  0  0  0  0  0  0  0  0  0  0  0
   -5.9652   -6.3085    0.8855 C   0  0  0  0  0  0  0  0  0  0  0  0
   -6.4118   -7.6289    0.7641 C   0  0  0  0  0  0  0  0  0  0  0  0
   -6.0008   -8.3980   -0.3024 C   0  0  0  0  0  0  0  0  0  0  0  0
   -5.1455   -7.8709   -1.2587 C   0  0  0  0  0  0  0  0  0  0  0  0
   -4.6999   -6.5685   -1.1566 C   0  0  0  0  0  0  0  0  0  0  0  0
   -3.5398   -5.8614   -2.4719 Br  0  0  0  0  0  0  0  0  0  0  0  0
   -6.6057  -10.1824   -0.4633 Br  0  0  0  0  0  0  0  0  0  0  0  0
   -6.3993   -5.4819    2.0214 C   0  0  0  0  0  0  0  0  0  0  0  0
   -7.1538   -5.9481    2.8643 O   0  0  0  0  0  0  0  0  0  0  0  0
   -6.0059   -4.3278    2.1239 O   0  0  0  0  0  1  0  0  0  0  0  0
    0.7981    1.8179    1.8562 H   0  0  0  0  0  0  0  0  0  0  0  0
   -0.5079    1.8943    0.6492 H   0  0  0  0  0  0  0  0  0  0  0  0
   -0.9017    1.7314    2.3774 H   0  0  0  0  0  0  0  0  0  0  0  0
    0.5471   -0.3495    0.6780 H   0  0  0  0  0  0  0  0  0  0  0  0
    0.1534   -0.5124    2.4062 H   0  0  0  0  0  0  0  0  0  0  0  0
   -0.8602   -2.2865    0.1747 H   0  0  0  0  0  0  0  0  0  0  0  0
   -1.2540   -2.4494    1.9029 H   0  0  0  0  0  0  0  0  0  0  0  0
   -3.6477   -2.0481    1.3953 H   0  0  0  0  0  0  0  0  0  0  0  0
   -3.2540   -1.8852   -0.3329 H   0  0  0  0  0  0  0  0  0  0  0  0
   -7.0776   -8.0448    1.5059 H   0  0  0  0  0  0  0  0  0  0  0  0
   -4.8290   -8.4824   -2.0907 H   0  0  0  0  0  0  0  0  0  0  0  0
  1  2  1  0  0  0  0
  1 21  1  0  0  0  0
  1 22  1  0  0  0  0
  1 23  1  0  0  0  0
  2  3  1  0  0  0  0
  2 24  1  0  0  0  0
  2 25  1  0  0  0  0
  3  4  1  0  0  0  0
  4  5  1  0  0  0  0
  4 26  1  0  0  0  0
  4 27  1  0  0  0  0
  5  6  1  0  0  0  0
  5 28  1  0  0  0  0
  5 29  1  0  0  0  0
  6  7  2  0  0  0  0
  6  8  2  0  0  0  0
  6  9  1  0  0  0  0
  9 10  1  0  0  0  0
 10 15  2  0  0  0  0
 10 11  1  0  0  0  0
 11 12  2  0  0  0  0
 11 18  1  0  0  0  0
 12 13  1  0  0  0  0
 12 30  1  0  0  0  0
 13 14  2  0  0  0  0
 13 17  1  0  0  0  0
 14 15  1  0  0  0  0
 14 31  1  0  0  0  0
 15 16  1  0  0  0  0
 18 19  2  0  0  0  0
 18 20  1  0  0  0  0
M  END
$$$$
ZINC04953161
 OpenBabel01252620473D

 49 51  0  0  1  0  0  0  0  0999 V2000
   -0.0554    4.2367    0.0244 C   0  0  0  0  0  0  0  0  0  0  0  0
    1.1547    3.5648    0.0097 C   0  0  0  0  0  0  0  0  0  0  0  0
    1.1820    2.1864    0.0025 C   0  0  0  0  0  0  0  0  0  0  0  0
   -0.0179    1.4667    0.0101 C   0  0  0  0  0  0  0  0  0  0  0  0
   -1.2368    2.1535    0.0196 C   0  0  0  0  0  0  0  0  0  0  0  0
   -1.2469    3.5321    0.0324 C   0  0  0  0  0  0  0  0  0  0  0  0
    0.0021   -0.0041    0.0020 C   0  0  0  0  0  0  0  0  0  0  0  0
   -1.1584   -0.6953    0.0094 C   0  0  0  0  0  0  0  0  0  0  0  0
   -1.1385   -2.1588    0.0013 C   0  0  0  0  0  0  0  0  0  0  0  0
   -0.0752   -2.7536   -0.0120 O   0  0  0  0  0  0  0  0  0  0  0  0
   -2.3997   -2.9100    0.0093 C   0  0  0  0  0  0  0  0  0  0  0  0
   -2.5373   -4.2558   -0.0025 C   0  0  0  0  0  0  0  0  0  0  0  0
   -3.9740   -4.5974    0.0153 C   0  0  0  0  0  0  0  0  0  0  0  0
   -4.4221   -5.7269    0.0135 O   0  0  0  0  0  0  0  0  0  0  0  0
   -4.7135   -3.4735    0.0284 N   0  0  0  0  0  0  0  0  0  0  0  0
   -3.7944   -2.3293    0.0258 C   0  0  2  0  0  0  0  0  0  0  0  0
   -3.9401   -1.7294    0.9241 H   0  0  0  0  0  0  0  0  0  0  0  0
   -4.0194   -1.4866   -1.2032 C   0  0  0  0  0  0  0  0  0  0  0  0
   -4.2956   -2.0923   -2.4148 C   0  0  0  0  0  0  0  0  0  0  0  0
   -4.5069   -1.3204   -3.5415 C   0  0  0  0  0  0  0  0  0  0  0  0
   -4.4315    0.0597   -3.4586 C   0  0  0  0  0  0  0  0  0  0  0  0
   -4.1496    0.6650   -2.2457 C   0  0  0  0  0  0  0  0  0  0  0  0
   -3.9439   -0.1088   -1.1192 C   0  0  0  0  0  0  0  0  0  0  0  0
   -4.6332    0.8151   -4.5604 F   0  0  0  0  0  0  0  0  0  0  0  0
   -6.1768   -3.4042    0.0428 C   0  0  0  0  0  0  0  0  0  0  0  0
   -6.7000   -3.3724   -1.3946 C   0  0  0  0  0  0  0  0  0  0  0  0
   -8.2282   -3.3000   -1.3797 C   0  0  0  0  0  0  0  0  0  0  0  0
   -8.7435   -3.2686   -2.7955 C   0  0  0  0  0  0  0  0  0  0  0  0
   -7.9680   -3.3008   -3.7215 O   0  0  0  0  0  0  0  0  0  0  0  0
   -1.5194   -5.1479   -0.0240 O   0  0  0  0  0  0  0  0  0  0  0  0
   -0.0701    5.3166    0.0299 H   0  0  0  0  0  0  0  0  0  0  0  0
    2.0799    4.1218    0.0042 H   0  0  0  0  0  0  0  0  0  0  0  0
    2.1269    1.6636   -0.0086 H   0  0  0  0  0  0  0  0  0  0  0  0
   -2.1673    1.6051    0.0210 H   0  0  0  0  0  0  0  0  0  0  0  0
   -2.1869    4.0637    0.0446 H   0  0  0  0  0  0  0  0  0  0  0  0
    0.9446   -0.5313   -0.0098 H   0  0  0  0  0  0  0  0  0  0  0  0
   -2.1009   -0.1681    0.0212 H   0  0  0  0  0  0  0  0  0  0  0  0
   -4.3503   -3.1689   -2.4801 H   0  0  0  0  0  0  0  0  0  0  0  0
   -4.7267   -1.7936   -4.4871 H   0  0  0  0  0  0  0  0  0  0  0  0
   -4.0903    1.7413   -2.1799 H   0  0  0  0  0  0  0  0  0  0  0  0
   -3.7244    0.3631   -0.1729 H   0  0  0  0  0  0  0  0  0  0  0  0
   -6.5769   -4.2788    0.5558 H   0  0  0  0  0  0  0  0  0  0  0  0
   -6.4926   -2.5008    0.5645 H   0  0  0  0  0  0  0  0  0  0  0  0
   -6.2998   -2.4978   -1.9076 H   0  0  0  0  0  0  0  0  0  0  0  0
   -6.3841   -4.2758   -1.9164 H   0  0  0  0  0  0  0  0  0  0  0  0
   -8.6283   -4.1745   -0.8667 H   0  0  0  0  0  0  0  0  0  0  0  0
   -8.5440   -2.3966   -0.8579 H   0  0  0  0  0  0  0  0  0  0  0  0
   -1.8902   -6.0766   -0.0287 H   0  0  0  0  0  0  0  0  0  0  0  0
  -10.0640   -3.2048   -3.0278 O   0  0  0  0  0  1  0  0  0  0  0  0
  1  6  2  0  0  0  0
  1  2  1  0  0  0  0
  1 31  1  0  0  0  0
  2  3  2  0  0  0  0
  2 32  1  0  0  0  0
  3  4  1  0  0  0  0
  3 33  1  0  0  0  0
  4  5  2  0  0  0  0
  4  7  1  0  0  0  0
  5  6  1  0  0  0  0
  5 34  1  0  0  0  0
  6 35  1  0  0  0  0
  7  8  2  0  0  0  0
  7 36  1  0  0  0  0
  8  9  1  0  0  0  0
  8 37  1  0  0  0  0
  9 10  2  0  0  0  0
  9 11  1  0  0  0  0
 11 16  1  0  0  0  0
 11 12  2  0  0  0  0
 12 13  1  0  0  0  0
 12 30  1  0  0  0  0
 13 14  2  0  0  0  0
 13 15  1  0  0  0  0
 15 16  1  0  0  0  0
 15 25  1  0  0  0  0
 16 17  1  1  0  0  0
 16 18  1  0  0  0  0
 18 23  2  0  0  0  0
 18 19  1  0  0  0  0
 19 20  2  0  0  0  0
 19 38  1  0  0  0  0
 20 21  1  0  0  0  0
 20 39  1  0  0  0  0
 21 22  2  0  0  0  0
 21 24  1  0  0  0  0
 22 23  1  0  0  0  0
 22 40  1  0  0  0  0
 23 41  1  0  0  0  0
 25 26  1  0  0  0  0
 25 42  1  0  0  0  0
 25 43  1  0  0  0  0
 26 27  1  0  0  0  0
 26 44  1  0  0  0  0
 26 45  1  0  0  0  0
 27 28  1  0  0  0  0
 27 46  1  0  0  0  0
 27 47  1  0  0  0  0
 28 29  2  0  0  0  0
 28 49  1  0  0  0  0
 30 48  1  0  0  0  0
M  END
$$$$
ZINC26254851
 OpenBabel01252620473D

 43 43  0  0  1  0  0  0  0  0999 V2000
   -3.5012   -1.1797    1.0018 C   0  0  0  0  0  0  0  0  0  0  0  0
   -2.0893   -0.6572    1.0682 C   0  0  0  0  0  0  0  0  0  0  0  0
   -1.5997   -0.3675    2.1393 O   0  0  0  0  0  0  0  0  0  0  0  0
   -1.3706   -0.5119   -0.0626 N   0  0  0  0  0  0  0  0  0  0  0  0
    0.0021   -0.0041    0.0020 C   0  0  2  0  0  0  0  0  0  0  0  0
    0.4450   -0.3949    0.9300 H   0  0  0  0  0  0  0  0  0  0  0  0
   -0.0187    1.5275    0.0104 C   0  0  2  0  0  0  0  0  0  0  0  0
   -0.5991    1.9284   -0.8337 H   0  0  0  0  0  0  0  0  0  0  0  0
    1.4223    2.0468   -0.0005 C   0  0  0  0  0  0  0  0  0  0  0  0
    2.1506    1.4824   -1.2231 C   0  0  1  0  0  0  0  0  0  0  0  0
    2.1062    0.0545   -1.1851 O   0  0  0  0  0  0  0  0  0  0  0  0
    0.7852   -0.4893   -1.2207 C   0  0  1  0  0  0  0  0  0  0  0  0
    0.3349   -0.1235   -2.1552 H   0  0  0  0  0  0  0  0  0  0  0  0
    0.8616   -2.0173   -1.2042 C   0  0  1  0  0  0  0  0  0  0  0  0
   -0.1406   -2.4674   -1.2589 H   0  0  0  0  0  0  0  0  0  0  0  0
    1.7482   -2.4961   -2.3555 C   0  0  1  0  0  0  0  0  0  0  0  0
    2.7504   -2.0461   -2.3008 H   0  0  0  0  0  0  0  0  0  0  0  0
    1.8246   -4.0241   -2.3390 C   0  0  0  0  0  0  0  0  0  0  0  0
    2.7437   -4.4659   -3.3401 O   0  0  0  0  0  0  0  0  0  0  0  0
    1.1924   -2.0603   -3.5978 O   0  0  0  0  0  0  0  0  0  0  0  0
    1.4174   -2.4531    0.0381 O   0  0  0  0  0  0  0  0  0  0  0  0
    1.4782    1.9728   -2.4794 C   0  0  0  0  0  0  0  0  0  0  0  0
    2.1222    2.5493   -3.3238 O   0  0  0  0  0  0  0  0  0  0  0  0
    0.1638    1.7693   -2.6605 O   0  0  0  0  0  0  0  0  0  0  0  0
   -0.4168    2.2688   -3.8940 C   0  0  0  0  0  0  0  0  0  0  0  0
    3.5117    1.9174   -1.2099 O   0  0  0  0  0  0  0  0  0  0  0  0
   -0.6846    1.9901    1.1872 O   0  0  0  0  0  0  0  0  0  0  0  0
   -3.7672   -1.3853   -0.0456 H   0  0  0  0  0  0  0  0  0  0  0  0
   -4.1901   -0.4279    1.4143 H   0  0  0  0  0  0  0  0  0  0  0  0
   -3.5768   -2.1073    1.5882 H   0  0  0  0  0  0  0  0  0  0  0  0
   -1.8147   -0.7746   -1.0341 H   0  0  0  0  0  0  0  0  0  0  0  0
    1.4157    3.1457   -0.0491 H   0  0  0  0  0  0  0  0  0  0  0  0
    1.9355    1.7235    0.9171 H   0  0  0  0  0  0  0  0  0  0  0  0
    2.1680   -4.3634   -1.3506 H   0  0  0  0  0  0  0  0  0  0  0  0
    0.8287   -4.4433   -2.5449 H   0  0  0  0  0  0  0  0  0  0  0  0
    2.9313   -5.5409   -3.4786 H   0  0  0  0  0  0  0  0  0  0  0  0
    1.6950   -2.3115   -4.5435 H   0  0  0  0  0  0  0  0  0  0  0  0
    1.5508   -3.5272    0.2343 H   0  0  0  0  0  0  0  0  0  0  0  0
   -1.4918    2.0367   -3.9136 H   0  0  0  0  0  0  0  0  0  0  0  0
    0.0774    1.7899   -4.7521 H   0  0  0  0  0  0  0  0  0  0  0  0
   -0.2758    3.3582   -3.9508 H   0  0  0  0  0  0  0  0  0  0  0  0
    4.1953    1.6097   -2.0149 H   0  0  0  0  0  0  0  0  0  0  0  0
   -0.7970    3.0694    1.3672 H   0  0  0  0  0  0  0  0  0  0  0  0
  1  2  1  0  0  0  0
  1 28  1  0  0  0  0
  1 29  1  0  0  0  0
  1 30  1  0  0  0  0
  2  3  2  0  0  0  0
  2  4  1  0  0  0  0
  4  5  1  0  0  0  0
  4 31  1  0  0  0  0
  5  6  1  1  0  0  0
  5 12  1  0  0  0  0
  5  7  1  0  0  0  0
  7  8  1  6  0  0  0
  7  9  1  0  0  0  0
  7 27  1  0  0  0  0
  9 10  1  0  0  0  0
  9 32  1  0  0  0  0
  9 33  1  0  0  0  0
 10 11  1  0  0  0  0
 10 22  1  6  0  0  0
 10 26  1  0  0  0  0
 11 12  1  0  0  0  0
 12 13  1  6  0  0  0
 12 14  1  0  0  0  0
 14 15  1  6  0  0  0
 14 16  1  0  0  0  0
 14 21  1  0  0  0  0
 16 17  1  1  0  0  0
 16 18  1  0  0  0  0
 16 20  1  0  0  0  0
 18 19  1  0  0  0  0
 18 34  1  0  0  0  0
 18 35  1  0  0  0  0
 19 36  1  0  0  0  0
 20 37  1  0  0  0  0
 21 38  1  0  0  0  0
 22 23  2  0  0  0  0
 22 24  1  0  0  0  0
 24 25  1  0  0  0  0
 25 39  1  0  0  0  0
 25 40  1  0  0  0  0
 25 41  1  0  0  0  0
 26 42  1  0  0  0  0
 27 43  1  0  0  0  0
M  END
$$$$
ZINC12693883
 OpenBabel01252620473D

 49 50  0  0  0  0  0  0  0  0999 V2000
   -0.0187    1.5258    0.0104 C   0  0  0  0  0  0  0  0  0  0  0  0
    0.0021   -0.0041    0.0020 C   0  0  0  0  0  0  0  0  0  0  0  0
    0.7182   -0.4975   -1.2568 C   0  0  0  0  0  0  0  0  0  0  0  0
    0.7386   -2.0043   -1.2651 C   0  0  0  0  0  0  0  0  0  0  0  0
    1.6601   -2.7669   -0.7482 N   0  0  0  0  0  0  0  0  0  0  0  0
    1.3641   -4.0038   -0.9330 N   0  0  0  0  0  0  0  0  0  0  0  0
    0.2276   -4.0980   -1.5836 C   0  0  0  0  0  0  0  0  0  0  0  0
   -0.5833   -5.5861   -2.0658 S   0  0  0  0  0  1  0  0  0  0  0  0
   -0.2095   -2.8247   -1.8113 N   0  0  0  0  0  0  0  0  0  0  0  0
   -1.4377   -2.4210   -2.5002 C   0  0  0  0  0  0  0  0  0  0  0  0
   -1.1599   -2.2670   -3.9734 C   0  0  0  0  0  0  0  0  0  0  0  0
   -0.0456   -2.4740   -4.4052 O   0  0  0  0  0  0  0  0  0  0  0  0
   -2.1497   -1.8991   -4.8110 N   0  0  0  0  0  0  0  0  0  0  0  0
   -1.8914   -1.7559   -6.1805 N   0  0  0  0  0  0  0  0  0  0  0  0
   -2.8811   -1.3881   -7.0181 C   0  0  0  0  0  0  0  0  0  0  0  0
   -3.9982   -1.1806   -6.5851 O   0  0  0  0  0  0  0  0  0  0  0  0
   -2.6090   -1.2372   -8.4610 C   0  0  0  0  0  0  0  0  0  0  0  0
   -1.3274   -1.4809   -8.9608 C   0  0  0  0  0  0  0  0  0  0  0  0
   -1.0751   -1.3401  -10.3081 C   0  0  0  0  0  0  0  0  0  0  0  0
   -2.0921   -0.9562  -11.1716 C   0  0  0  0  0  0  0  0  0  0  0  0
   -3.3731   -0.7110  -10.6794 C   0  0  0  0  0  0  0  0  0  0  0  0
   -3.6341   -0.8559   -9.3307 C   0  0  0  0  0  0  0  0  0  0  0  0
   -4.3670   -0.3341  -11.5278 O   0  0  0  0  0  0  0  0  0  0  0  0
   -5.6548   -0.0995  -10.9548 C   0  0  0  0  0  0  0  0  0  0  0  0
   -1.8384   -0.8187  -12.4986 O   0  0  0  0  0  0  0  0  0  0  0  0
   -0.5040   -1.0852  -12.9350 C   0  0  0  0  0  0  0  0  0  0  0  0
   -0.4116   -0.8794  -14.4483 C   0  0  0  0  0  0  0  0  0  0  0  0
    1.0039    1.9031    0.0027 H   0  0  0  0  0  0  0  0  0  0  0  0
   -0.5459    1.8868   -0.8726 H   0  0  0  0  0  0  0  0  0  0  0  0
   -0.5289    1.8773    0.9072 H   0  0  0  0  0  0  0  0  0  0  0  0
    0.5293   -0.3651    0.8851 H   0  0  0  0  0  0  0  0  0  0  0  0
   -1.0205   -0.3814    0.0098 H   0  0  0  0  0  0  0  0  0  0  0  0
    0.1910   -0.1364   -2.1398 H   0  0  0  0  0  0  0  0  0  0  0  0
    1.7408   -0.1202   -1.2645 H   0  0  0  0  0  0  0  0  0  0  0  0
   -2.2040   -3.1820   -2.3527 H   0  0  0  0  0  0  0  0  0  0  0  0
   -1.7863   -1.4711   -2.0950 H   0  0  0  0  0  0  0  0  0  0  0  0
   -3.0408   -1.7336   -4.4656 H   0  0  0  0  0  0  0  0  0  0  0  0
   -1.0002   -1.9215   -6.5259 H   0  0  0  0  0  0  0  0  0  0  0  0
   -0.5344   -1.7793   -8.2912 H   0  0  0  0  0  0  0  0  0  0  0  0
   -0.0838   -1.5285  -10.6931 H   0  0  0  0  0  0  0  0  0  0  0  0
   -4.6271   -0.6706   -8.9486 H   0  0  0  0  0  0  0  0  0  0  0  0
   -6.3533    0.1938  -11.7385 H   0  0  0  0  0  0  0  0  0  0  0  0
   -6.0101   -1.0109  -10.4739 H   0  0  0  0  0  0  0  0  0  0  0  0
   -5.5835    0.6976  -10.2148 H   0  0  0  0  0  0  0  0  0  0  0  0
    0.1849   -0.4057  -12.4332 H   0  0  0  0  0  0  0  0  0  0  0  0
   -0.2408   -2.1146  -12.6916 H   0  0  0  0  0  0  0  0  0  0  0  0
   -1.1004   -1.5589  -14.9501 H   0  0  0  0  0  0  0  0  0  0  0  0
   -0.6747    0.1499  -14.6917 H   0  0  0  0  0  0  0  0  0  0  0  0
    0.6063   -1.0827  -14.7811 H   0  0  0  0  0  0  0  0  0  0  0  0
  1  2  1  0  0  0  0
  1 28  1  0  0  0  0
  1 29  1  0  0  0  0
  1 30  1  0  0  0  0
  2  3  1  0  0  0  0
  2 31  1  0  0  0  0
  2 32  1  0  0  0  0
  3 33  1  0  0  0  0
  3 34  1  0  0  0  0
  3  4  1  0  0  0  0
  4  9  1  0  0  0  0
  4  5  2  0  0  0  0
  5  6  1  0  0  0  0
  6  7  2  0  0  0  0
  7  8  1  0  0  0  0
  7  9  1  0  0  0  0
  9 10  1  0  0  0  0
 10 11  1  0  0  0  0
 10 35  1  0  0  0  0
 10 36  1  0  0  0  0
 11 12  2  0  0  0  0
 11 13  1  0  0  0  0
 13 14  1  0  0  0  0
 13 37  1  0  0  0  0
 14 15  1  0  0  0  0
 14 38  1  0  0  0  0
 15 16  2  0  0  0  0
 15 17  1  0  0  0  0
 17 22  2  0  0  0  0
 17 18  1  0  0  0  0
 18 19  2  0  0  0  0
 18 39  1  0  0  0  0
 19 20  1  0  0  0  0
 19 40  1  0  0  0  0
 20 21  2  0  0  0  0
 20 25  1  0  0  0  0
 21 22  1  0  0  0  0
 21 23  1  0  0  0  0
 22 41  1  0  0  0  0
 23 24  1  0  0  0  0
 24 42  1  0  0  0  0
 24 43  1  0  0  0  0
 24 44  1  0  0  0  0
 25 26  1  0  0  0  0
 26 27  1  0  0  0  0
 26 45  1  0  0  0  0
 26 46  1  0  0  0  0
 27 47  1  0  0  0  0
 27 48  1  0  0  0  0
 27 49  1  0  0  0  0
M  END
$$$$
ZINC61150568
 OpenBabel01252620473D

 43 44  0  0  1  0  0  0  0  0999 V2000
    2.1008    1.4024   -0.6078 C   0  0  0  0  0  0  0  0  0  0  0  0
    1.8213   -0.1001   -0.5351 C   0  0  2  0  0  0  0  0  0  0  0  0
    1.8650   -0.6329   -1.4850 H   0  0  0  0  0  0  0  0  0  0  0  0
    0.7989   -0.5793    0.4973 C   0  0  0  0  0  0  0  0  0  0  0  0
    2.2902   -0.8462    0.7157 C   0  0  1  0  0  0  0  0  0  0  0  0
    2.7979   -0.2666    1.4867 H   0  0  0  0  0  0  0  0  0  0  0  0
    2.7767   -2.2617    0.5401 C   0  0  0  0  0  0  0  0  0  0  0  0
    4.0043   -2.7158    0.8503 C   0  0  0  0  0  0  0  0  0  0  0  0
    4.0263   -4.0916    0.5255 C   0  0  0  0  0  0  0  0  0  0  0  0
    2.8109   -4.3960    0.0361 C   0  0  0  0  0  0  0  0  0  0  0  0
    2.0563   -3.2850    0.0528 O   0  0  0  0  0  0  0  0  0  0  0  0
    2.3690   -5.7544   -0.4440 C   0  0  0  0  0  0  0  0  0  0  0  0
    1.7645   -6.5363    0.7239 C   0  0  0  0  0  0  0  0  0  0  0  0
    1.3226   -7.8947    0.2438 C   0  0  0  0  0  0  0  0  0  0  0  0
    1.4761   -8.2067   -0.9181 O   0  0  0  0  0  0  0  0  0  0  0  0
    0.7570   -8.7629    1.1056 N   0  0  0  0  0  0  0  0  0  0  0  0
    0.5717   -8.3861    2.5091 C   0  0  0  0  0  0  0  0  0  0  0  0
    0.3274  -10.0835    0.6388 C   0  0  0  0  0  0  0  0  0  0  0  0
   -0.2988  -10.8565    1.8013 C   0  0  0  0  0  0  0  0  0  0  0  0
   -0.7046   -9.9186   -0.4786 C   0  0  0  0  0  0  0  0  0  0  0  0
    1.5187  -10.8429    0.1144 C   0  0  0  0  0  0  0  0  0  0  0  0
    2.6391  -10.3770    0.2330 O   0  0  0  0  0  0  0  0  0  0  0  0
    1.3622  -11.9233   -0.4285 O   0  0  0  0  0  1  0  0  0  0  0  0
    3.1759    1.5748   -0.5571 H   0  0  0  0  0  0  0  0  0  0  0  0
    1.7130    1.7991   -1.5460 H   0  0  0  0  0  0  0  0  0  0  0  0
    1.6127    1.9036    0.2280 H   0  0  0  0  0  0  0  0  0  0  0  0
    0.3253    0.1758    1.1247 H   0  0  0  0  0  0  0  0  0  0  0  0
    0.1702   -1.4277    0.2268 H   0  0  0  0  0  0  0  0  0  0  0  0
    4.8173   -2.1398    1.2670 H   0  0  0  0  0  0  0  0  0  0  0  0
    4.8593   -4.7683    0.6466 H   0  0  0  0  0  0  0  0  0  0  0  0
    1.6212   -5.6370   -1.2283 H   0  0  0  0  0  0  0  0  0  0  0  0
    3.2277   -6.2972   -0.8390 H   0  0  0  0  0  0  0  0  0  0  0  0
    2.5123   -6.6537    1.5083 H   0  0  0  0  0  0  0  0  0  0  0  0
    0.9058   -5.9935    1.1189 H   0  0  0  0  0  0  0  0  0  0  0  0
   -0.4365   -7.9968    2.6507 H   0  0  0  0  0  0  0  0  0  0  0  0
    0.7153   -9.2616    3.1424 H   0  0  0  0  0  0  0  0  0  0  0  0
    1.2983   -7.6196    2.7785 H   0  0  0  0  0  0  0  0  0  0  0  0
   -1.1604  -10.3072    2.1806 H   0  0  0  0  0  0  0  0  0  0  0  0
   -0.6184  -11.8390    1.4540 H   0  0  0  0  0  0  0  0  0  0  0  0
    0.4364  -10.9739    2.5974 H   0  0  0  0  0  0  0  0  0  0  0  0
   -0.2585   -9.3679   -1.3068 H   0  0  0  0  0  0  0  0  0  0  0  0
   -1.0242  -10.9011   -0.8259 H   0  0  0  0  0  0  0  0  0  0  0  0
   -1.5662   -9.3693   -0.0993 H   0  0  0  0  0  0  0  0  0  0  0  0
  1  2  1  0  0  0  0
  1 24  1  0  0  0  0
  1 25  1  0  0  0  0
  1 26  1  0  0  0  0
  2  3  1  6  0  0  0
  2  5  1  0  0  0  0
  2  4  1  0  0  0  0
  4  5  1  0  0  0  0
  4 27  1  0  0  0  0
  4 28  1  0  0  0  0
  5  6  1  1  0  0  0
  5  7  1  0  0  0  0
  7 11  1  0  0  0  0
  7  8  2  0  0  0  0
  8  9  1  0  0  0  0
  8 29  1  0  0  0  0
  9 10  2  0  0  0  0
  9 30  1  0  0  0  0
 10 11  1  0  0  0  0
 10 12  1  0  0  0  0
 12 13  1  0  0  0  0
 12 31  1  0  0  0  0
 12 32  1  0  0  0  0
 13 14  1  0  0  0  0
 13 33  1  0  0  0  0
 13 34  1  0  0  0  0
 14 15  2  0  0  0  0
 14 16  1  0  0  0  0
 16 17  1  0  0  0  0
 16 18  1  0  0  0  0
 17 35  1  0  0  0  0
 17 36  1  0  0  0  0
 17 37  1  0  0  0  0
 18 19  1  0  0  0  0
 18 20  1  0  0  0  0
 18 21  1  0  0  0  0
 19 38  1  0  0  0  0
 19 39  1  0  0  0  0
 19 40  1  0  0  0  0
 20 41  1  0  0  0  0
 20 42  1  0  0  0  0
 20 43  1  0  0  0  0
 21 22  2  0  0  0  0
 21 23  1  0  0  0  0
M  END
$$$$
ZINC56433967
 OpenBabel01252620473D

 47 48  0  0  0  0  0  0  0  0999 V2000
   -0.0173    1.4248    0.0099 C   0  0  0  0  0  0  0  0  0  0  0  0
    0.0021   -0.0041    0.0020 O   0  0  0  0  0  0  0  0  0  0  0  0
    0.6062   -0.6075   -1.0563 C   0  0  0  0  0  0  0  0  0  0  0  0
    1.1728    0.1612   -2.0622 C   0  0  0  0  0  0  0  0  0  0  0  0
    1.7864   -0.4517   -3.1373 C   0  0  0  0  0  0  0  0  0  0  0  0
    1.8363   -1.8358   -3.2107 C   0  0  0  0  0  0  0  0  0  0  0  0
    1.2705   -2.6045   -2.2044 C   0  0  0  0  0  0  0  0  0  0  0  0
    0.6606   -1.9916   -1.1272 C   0  0  0  0  0  0  0  0  0  0  0  0
    2.4396   -2.4392   -4.2695 O   0  0  0  0  0  0  0  0  0  0  0  0
    2.4542   -3.8681   -4.2801 C   0  0  0  0  0  0  0  0  0  0  0  0
    3.1701   -4.3615   -5.5390 C   0  0  0  0  0  0  0  0  0  0  0  0
    3.1858   -5.8914   -5.5503 C   0  0  0  0  0  0  0  0  0  0  0  0
    3.8713   -6.3639   -6.7558 N   0  0  0  0  0  0  0  0  0  0  0  0
    4.0062   -7.6860   -6.9799 C   0  0  0  0  0  0  0  0  0  0  0  0
    3.5588   -8.4868   -6.1815 O   0  0  0  0  0  0  0  0  0  0  0  0
    4.6961   -8.1615   -8.1929 C   0  0  0  0  0  0  0  0  0  0  0  0
    5.2169   -7.2447   -9.1104 C   0  0  0  0  0  0  0  0  0  0  0  0
    5.8616   -7.6963  -10.2431 C   0  0  0  0  0  0  0  0  0  0  0  0
    5.9959   -9.0577  -10.4766 C   0  0  0  0  0  0  0  0  0  0  0  0
    5.4861   -9.9735   -9.5795 C   0  0  0  0  0  0  0  0  0  0  0  0
    4.8388   -9.5369   -8.4303 C   0  0  0  0  0  0  0  0  0  0  0  0
    4.3298  -10.4585   -7.5228 N   0  0  0  0  0  2  0  0  0  0  0  0
    4.5003  -12.0810   -7.8067 S   0  0  0  0  0  0  0  0  0  0  0  0
    3.7544  -12.3221   -8.9919 O   0  0  0  0  0  0  0  0  0  0  0  0
    5.9025  -12.3094   -7.7742 O   0  0  0  0  0  0  0  0  0  0  0  0
    3.7028  -12.8883   -6.3915 C   0  0  0  0  0  0  0  0  0  0  0  0
    6.3643   -6.8092  -11.1294 F   0  0  0  0  0  0  0  0  0  0  0  0
    1.0053    1.8021    0.0021 H   0  0  0  0  0  0  0  0  0  0  0  0
   -0.5445    1.7859   -0.8732 H   0  0  0  0  0  0  0  0  0  0  0  0
   -0.5275    1.7763    0.9067 H   0  0  0  0  0  0  0  0  0  0  0  0
    1.1340    1.2390   -2.0050 H   0  0  0  0  0  0  0  0  0  0  0  0
    2.2270    0.1469   -3.9209 H   0  0  0  0  0  0  0  0  0  0  0  0
    1.3090   -3.6823   -2.2617 H   0  0  0  0  0  0  0  0  0  0  0  0
    0.2233   -2.5901   -0.3417 H   0  0  0  0  0  0  0  0  0  0  0  0
    2.9791   -4.2327   -3.3971 H   0  0  0  0  0  0  0  0  0  0  0  0
    1.4303   -4.2420   -4.2743 H   0  0  0  0  0  0  0  0  0  0  0  0
    2.6452   -3.9970   -6.4220 H   0  0  0  0  0  0  0  0  0  0  0  0
    4.1940   -3.9877   -5.5448 H   0  0  0  0  0  0  0  0  0  0  0  0
    3.7107   -6.2560   -4.6673 H   0  0  0  0  0  0  0  0  0  0  0  0
    2.1619   -6.2653   -5.5445 H   0  0  0  0  0  0  0  0  0  0  0  0
    4.2281   -5.7251   -7.3926 H   0  0  0  0  0  0  0  0  0  0  0  0
    5.1144   -6.1843   -8.9329 H   0  0  0  0  0  0  0  0  0  0  0  0
    6.5022   -9.4024  -11.3661 H   0  0  0  0  0  0  0  0  0  0  0  0
    5.5944  -11.0313   -9.7685 H   0  0  0  0  0  0  0  0  0  0  0  0
    2.6541  -12.5944   -6.3491 H   0  0  0  0  0  0  0  0  0  0  0  0
    3.7728  -13.9703   -6.5035 H   0  0  0  0  0  0  0  0  0  0  0  0
    4.2025  -12.5852   -5.4714 H   0  0  0  0  0  0  0  0  0  0  0  0
  1  2  1  0  0  0  0
  1 28  1  0  0  0  0
  1 29  1  0  0  0  0
  1 30  1  0  0  0  0
  2  3  1  0  0  0  0
  3  8  2  0  0  0  0
  3  4  1  0  0  0  0
  4  5  2  0  0  0  0
  4 31  1  0  0  0  0
  5  6  1  0  0  0  0
  5 32  1  0  0  0  0
  6  7  2  0  0  0  0
  6  9  1  0  0  0  0
  7  8  1  0  0  0  0
  7 33  1  0  0  0  0
  8 34  1  0  0  0  0
  9 10  1  0  0  0  0
 10 11  1  0  0  0  0
 10 35  1  0  0  0  0
 10 36  1  0  0  0  0
 11 12  1  0  0  0  0
 11 37  1  0  0  0  0
 11 38  1  0  0  0  0
 12 13  1  0  0  0  0
 12 39  1  0  0  0  0
 12 40  1  0  0  0  0
 13 14  1  0  0  0  0
 13 41  1  0  0  0  0
 14 15  2  0  0  0  0
 14 16  1  0  0  0  0
 16 21  2  0  0  0  0
 16 17  1  0  0  0  0
 17 18  2  0  0  0  0
 17 42  1  0  0  0  0
 18 19  1  0  0  0  0
 18 27  1  0  0  0  0
 19 20  2  0  0  0  0
 19 43  1  0  0  0  0
 20 21  1  0  0  0  0
 20 44  1  0  0  0  0
 21 22  1  0  0  0  0
 22 23  1  0  0  0  0
 23 24  2  0  0  0  0
 23 25  2  0  0  0  0
 23 26  1  0  0  0  0
 26 45  1  0  0  0  0
 26 46  1  0  0  0  0
 26 47  1  0  0  0  0
M  END
$$$$
ZINC13251755
 OpenBabel01252620473D

 37 38  0  0  0  0  0  0  0  0999 V2000
    2.6693   -2.3371   -2.4767 C   0  0  0  0  0  0  0  0  0  0  0  0
    1.6033   -2.8479   -1.6112 N   0  0  0  0  0  0  0  0  0  0  0  0
    1.5264   -2.3759   -0.0258 S   0  0  0  0  0  0  0  0  0  0  0  0
    2.8309   -2.5446    0.5119 O   0  0  0  0  0  0  0  0  0  0  0  0
    0.3844   -3.0114    0.5322 O   0  0  0  0  0  0  0  0  0  0  0  0
    1.1962   -0.6452   -0.0128 C   0  0  0  0  0  0  0  0  0  0  0  0
    0.0021   -0.0041    0.0020 C   0  0  0  0  0  0  0  0  0  0  0  0
   -0.0167    1.3780    0.0096 C   0  0  0  0  0  0  0  0  0  0  0  0
    1.1597    2.0514    0.0020 C   0  0  0  0  0  0  0  0  0  0  0  0
    2.3478    0.7191   -0.0165 S   0  0  0  0  0  0  0  0  0  0  0  0
    1.4018    3.5389    0.0073 C   0  0  0  0  0  0  0  0  0  0  0  0
    1.4932    4.0139    1.3901 N   0  0  0  0  0  0  0  0  0  0  0  0
    2.1167    5.5141    1.7108 S   0  0  0  0  0  0  0  0  0  0  0  0
    2.0469    5.6904    3.1190 O   0  0  0  0  0  0  0  0  0  0  0  0
    3.3381    5.6087    0.9907 O   0  0  0  0  0  0  0  0  0  0  0  0
    1.0204    6.6966    1.0003 C   0  0  0  0  0  0  0  0  0  0  0  0
    1.2169    7.1245   -0.3019 C   0  0  0  0  0  0  0  0  0  0  0  0
    0.3595    8.0474   -0.8705 C   0  0  0  0  0  0  0  0  0  0  0  0
   -0.6956    8.5587   -0.1368 C   0  0  0  0  0  0  0  0  0  0  0  0
   -0.8955    8.1343    1.1810 C   0  0  0  0  0  0  0  0  0  0  0  0
   -0.0264    7.1967    1.7446 C   0  0  0  0  0  0  0  0  0  0  0  0
   -2.0186    8.6738    1.9716 C   0  0  0  0  0  0  0  0  0  0  0  0
   -2.7724    9.4889    1.4784 O   0  0  0  0  0  0  0  0  0  0  0  0
   -1.5306    9.4646   -0.6912 F   0  0  0  0  0  0  0  0  0  0  0  0
    2.6059   -1.2502   -2.5282 H   0  0  0  0  0  0  0  0  0  0  0  0
    3.6380   -2.6256   -2.0687 H   0  0  0  0  0  0  0  0  0  0  0  0
    2.5570   -2.7555   -3.4769 H   0  0  0  0  0  0  0  0  0  0  0  0
    0.9425   -3.4625   -1.9669 H   0  0  0  0  0  0  0  0  0  0  0  0
   -0.9210   -0.5647    0.0082 H   0  0  0  0  0  0  0  0  0  0  0  0
   -0.9546    1.9134    0.0170 H   0  0  0  0  0  0  0  0  0  0  0  0
    2.3337    3.7571   -0.5142 H   0  0  0  0  0  0  0  0  0  0  0  0
    0.5770    4.0430   -0.4963 H   0  0  0  0  0  0  0  0  0  0  0  0
    1.1885    3.4496    2.1179 H   0  0  0  0  0  0  0  0  0  0  0  0
    2.0418    6.7316   -0.8777 H   0  0  0  0  0  0  0  0  0  0  0  0
    0.5163    8.3731   -1.8882 H   0  0  0  0  0  0  0  0  0  0  0  0
   -0.1744    6.8647    2.7616 H   0  0  0  0  0  0  0  0  0  0  0  0
   -2.2081    8.2623    3.2404 O   0  0  0  0  0  1  0  0  0  0  0  0
  1  2  1  0  0  0  0
  1 25  1  0  0  0  0
  1 26  1  0  0  0  0
  1 27  1  0  0  0  0
  2  3  1  0  0  0  0
  2 28  1  0  0  0  0
  3  4  2  0  0  0  0
  3  5  2  0  0  0  0
  3  6  1  0  0  0  0
  6 10  1  0  0  0  0
  6  7  2  0  0  0  0
  7  8  1  0  0  0  0
  7 29  1  0  0  0  0
  8  9  2  0  0  0  0
  8 30  1  0  0  0  0
  9 10  1  0  0  0  0
  9 11  1  0  0  0  0
 11 12  1  0  0  0  0
 11 31  1  0  0  0  0
 11 32  1  0  0  0  0
 12 13  1  0  0  0  0
 12 33  1  0  0  0  0
 13 14  2  0  0  0  0
 13 15  2  0  0  0  0
 13 16  1  0  0  0  0
 16 21  2  0  0  0  0
 16 17  1  0  0  0  0
 17 18  2  0  0  0  0
 17 34  1  0  0  0  0
 18 19  1  0  0  0  0
 18 35  1  0  0  0  0
 19 20  2  0  0  0  0
 19 24  1  0  0  0  0
 20 21  1  0  0  0  0
 20 22  1  0  0  0  0
 21 36  1  0  0  0  0
 22 23  2  0  0  0  0
 22 37  1  0  0  0  0
M  END
$$$$
ZINC05386292
 OpenBabel01252620473D

 47 48  0  0  1  0  0  0  0  0999 V2000
    4.8783    2.8967    9.0704 C   0  0  0  0  0  0  0  0  0  0  0  0
    3.4816    3.3895    8.6867 C   0  0  0  0  0  0  0  0  0  0  0  0
    3.0386    2.7024    7.4868 O   0  0  0  0  0  0  0  0  0  0  0  0
    1.8237    3.0227    7.0145 C   0  0  0  0  0  0  0  0  0  0  0  0
    1.1526    3.8498    7.5849 O   0  0  0  0  0  0  0  0  0  0  0  0
    1.2967    2.3507    5.7728 C   0  0  0  0  0  0  0  0  0  0  0  0
   -0.0980    2.8921    5.4528 C   0  0  0  0  0  0  0  0  0  0  0  0
   -0.6331    2.2098    4.1922 C   0  0  0  0  0  0  0  0  0  0  0  0
   -2.2867    2.8518    3.8127 S   0  0  0  0  0  0  0  0  0  0  0  0
   -2.7584    1.9801    2.3559 C   0  0  0  0  0  0  0  0  0  0  0  0
   -4.0653    2.2293    1.7250 C   0  0  0  0  0  0  0  0  0  0  0  0
   -4.8362    3.0402    2.2029 O   0  0  0  0  0  0  0  0  0  0  0  0
   -4.3963    1.5456    0.6099 N   0  0  0  0  0  0  0  0  0  0  0  0
   -5.2540    1.6997    0.1839 H   0  0  0  0  0  0  0  0  0  0  0  0
   -3.5355    0.6539    0.0850 C   0  0  0  0  0  0  0  0  0  0  0  0
   -3.8438    0.0480   -0.9236 O   0  0  0  0  0  0  0  0  0  0  0  0
   -2.3429    0.4176    0.6590 N   0  0  0  0  0  0  0  0  0  0  0  0
   -1.9527    1.1010    1.8168 N   0  0  0  0  0  0  0  0  0  0  0  0
   -1.4360   -0.5652    0.0608 C   0  0  1  0  0  0  0  0  0  0  0  0
   -1.7774   -0.8396   -0.9373 H   0  0  0  0  0  0  0  0  0  0  0  0
    0.0021   -0.0041    0.0020 C   0  0  2  0  0  0  0  0  0  0  0  0
    0.5202   -0.3732   -0.8831 H   0  0  0  0  0  0  0  0  0  0  0  0
    0.6718   -0.5435    1.2857 C   0  0  1  0  0  0  0  0  0  0  0  0
    0.9881    0.2797    1.9263 H   0  0  0  0  0  0  0  0  0  0  0  0
   -0.4407   -1.3668    1.9719 C   0  0  1  0  0  0  0  0  0  0  0  0
   -0.9605   -0.7590    2.7126 H   0  0  0  0  0  0  0  0  0  0  0  0
   -1.3384   -1.7372    0.9029 O   0  0  0  0  0  0  0  0  0  0  0  0
    0.1495   -2.6162    2.6289 C   0  0  0  0  0  0  0  0  0  0  0  0
   -0.8733   -3.3010    3.3548 O   0  0  0  0  0  0  0  0  0  0  0  0
    1.7831   -1.3796    0.9572 O   0  0  0  0  0  0  0  0  0  0  0  0
   -0.0173    1.4248    0.0099 O   0  0  0  0  0  0  0  0  0  0  0  0
    5.2109    3.4125    9.9712 H   0  0  0  0  0  0  0  0  0  0  0  0
    4.8463    1.8233    9.2573 H   0  0  0  0  0  0  0  0  0  0  0  0
    5.5729    3.1031    8.2562 H   0  0  0  0  0  0  0  0  0  0  0  0
    3.5137    4.4629    8.4999 H   0  0  0  0  0  0  0  0  0  0  0  0
    2.7871    3.1830    9.5010 H   0  0  0  0  0  0  0  0  0  0  0  0
    1.2396    1.2748    5.9384 H   0  0  0  0  0  0  0  0  0  0  0  0
    1.9662    2.5547    4.9373 H   0  0  0  0  0  0  0  0  0  0  0  0
   -0.0410    3.9680    5.2872 H   0  0  0  0  0  0  0  0  0  0  0  0
   -0.7676    2.6881    6.2883 H   0  0  0  0  0  0  0  0  0  0  0  0
   -0.6902    1.1340    4.3577 H   0  0  0  0  0  0  0  0  0  0  0  0
    0.0365    2.4139    3.3566 H   0  0  0  0  0  0  0  0  0  0  0  0
    0.5524   -3.2751    1.8598 H   0  0  0  0  0  0  0  0  0  0  0  0
    0.9472   -2.3250    3.3122 H   0  0  0  0  0  0  0  0  0  0  0  0
   -0.5698   -4.1049    3.7982 H   0  0  0  0  0  0  0  0  0  0  0  0
    2.2408   -1.7456    1.7264 H   0  0  0  0  0  0  0  0  0  0  0  0
    0.8606    1.8301    0.0037 H   0  0  0  0  0  0  0  0  0  0  0  0
  1  2  1  0  0  0  0
  1 32  1  0  0  0  0
  1 33  1  0  0  0  0
  1 34  1  0  0  0  0
  2  3  1  0  0  0  0
  2 35  1  0  0  0  0
  2 36  1  0  0  0  0
  3  4  1  0  0  0  0
  4  5  2  0  0  0  0
  4  6  1  0  0  0  0
  6  7  1  0  0  0  0
  6 37  1  0  0  0  0
  6 38  1  0  0  0  0
  7  8  1  0  0  0  0
  7 39  1  0  0  0  0
  7 40  1  0  0  0  0
  8  9  1  0  0  0  0
  8 41  1  0  0  0  0
  8 42  1  0  0  0  0
  9 10  1  0  0  0  0
 10 18  2  0  0  0  0
 10 11  1  0  0  0  0
 11 12  2  0  0  0  0
 11 13  1  0  0  0  0
 13 14  1  0  0  0  0
 13 15  1  0  0  0  0
 15 16  2  0  0  0  0
 15 17  1  0  0  0  0
 17 18  1  0  0  0  0
 17 19  1  0  0  0  0
 19 20  1  6  0  0  0
 19 27  1  0  0  0  0
 19 21  1  0  0  0  0
 21 22  1  6  0  0  0
 21 23  1  0  0  0  0
 21 31  1  0  0  0  0
 23 24  1  1  0  0  0
 23 25  1  0  0  0  0
 23 30  1  0  0  0  0
 25 26  1  1  0  0  0
 25 27  1  0  0  0  0
 25 28  1  0  0  0  0
 28 29  1  0  0  0  0
 28 43  1  0  0  0  0
 28 44  1  0  0  0  0
 29 45  1  0  0  0  0
 30 46  1  0  0  0  0
 31 47  1  0  0  0  0
M  END
$$$$
ZINC64774139
 OpenBabel01252620473D

 51 54  0  0  1  0  0  0  0  0999 V2000
   -0.0167    1.3780    0.0096 C   0  0  0  0  0  0  0  0  0  0  0  0
    1.1706    2.0866    0.0021 C   0  0  0  0  0  0  0  0  0  0  0  0
    2.3773    1.4137   -0.0131 C   0  0  0  0  0  0  0  0  0  0  0  0
    2.3974    0.0291   -0.0207 C   0  0  0  0  0  0  0  0  0  0  0  0
    1.2080   -0.6793   -0.0132 C   0  0  0  0  0  0  0  0  0  0  0  0
    0.0021   -0.0041    0.0020 C   0  0  0  0  0  0  0  0  0  0  0  0
    1.2281   -2.1862   -0.0220 C   0  0  0  0  0  0  0  0  0  0  0  0
    1.2528   -2.8005    1.6846 S   0  0  0  0  0  0  0  0  0  0  0  0
    1.2746   -4.5534    1.5064 C   0  0  0  0  0  0  0  0  0  0  0  0
    1.2745   -5.0404    0.2775 N   0  0  0  0  0  0  0  0  0  0  0  0
    1.3563   -6.3500    0.0330 C   0  0  0  0  0  0  0  0  0  0  0  0
    1.3291   -6.7904   -1.0999 O   0  0  0  0  0  0  0  0  0  0  0  0
    1.4852   -7.2602    1.2368 C   0  0  2  0  0  0  0  0  0  0  0  0
    2.4424   -7.7790    1.1842 H   0  0  0  0  0  0  0  0  0  0  0  0
    0.3622   -8.2974    1.1760 C   0  0  2  0  0  0  0  0  0  0  0  0
   -0.5993   -7.8043    1.3192 H   0  0  0  0  0  0  0  0  0  0  0  0
    0.5839   -9.3241    2.2895 C   0  0  0  0  0  0  0  0  0  0  0  0
    0.8393   -8.6457    3.6041 C   0  0  0  0  0  0  0  0  0  0  0  0
    0.6888   -9.2837    4.6239 O   0  0  0  0  0  0  0  0  0  0  0  0
    1.2275   -7.3634    3.7009 N   0  0  0  0  0  0  0  0  0  0  0  0
    1.3666   -6.5867    2.5915 C   0  0  0  0  0  0  0  0  0  0  0  0
    1.2952   -5.2866    2.6259 N   0  0  0  0  0  0  0  0  0  0  0  0
    0.3824   -8.9868   -0.1639 C   0  0  0  0  0  0  0  0  0  0  0  0
    1.5031   -9.6932   -0.5597 C   0  0  0  0  0  0  0  0  0  0  0  0
    1.5243  -10.3257   -1.7877 C   0  0  0  0  0  0  0  0  0  0  0  0
    0.4197  -10.2520   -2.6237 C   0  0  0  0  0  0  0  0  0  0  0  0
   -0.7037   -9.5429   -2.2241 C   0  0  0  0  0  0  0  0  0  0  0  0
   -0.7219   -8.9165   -0.9929 C   0  0  0  0  0  0  0  0  0  0  0  0
    0.4383  -10.8729   -3.8324 O   0  0  0  0  0  0  0  0  0  0  0  0
   -0.7342  -10.7545   -4.6407 C   0  0  0  0  0  0  0  0  0  0  0  0
   -0.5306  -11.5015   -5.9336 C   0  0  0  0  0  0  0  0  0  0  0  0
    0.5156  -12.0785   -6.1423 O   0  0  0  0  0  0  0  0  0  0  0  0
   -1.5111  -11.5284   -6.8580 N   0  0  0  0  0  0  0  0  0  0  0  0
    3.5766   -0.6299   -0.0360 F   0  0  0  0  0  0  0  0  0  0  0  0
   -0.9594    1.9048    0.0260 H   0  0  0  0  0  0  0  0  0  0  0  0
    1.1547    3.1665    0.0077 H   0  0  0  0  0  0  0  0  0  0  0  0
    3.3046    1.9675   -0.0193 H   0  0  0  0  0  0  0  0  0  0  0  0
   -0.9259   -0.5565    0.0083 H   0  0  0  0  0  0  0  0  0  0  0  0
    0.3381   -2.5585   -0.5293 H   0  0  0  0  0  0  0  0  0  0  0  0
    2.1178   -2.5346   -0.5465 H   0  0  0  0  0  0  0  0  0  0  0  0
   -0.3017   -9.9535    2.3776 H   0  0  0  0  0  0  0  0  0  0  0  0
    1.4413   -9.9476    2.0359 H   0  0  0  0  0  0  0  0  0  0  0  0
    1.4250   -6.9860    4.5724 H   0  0  0  0  0  0  0  0  0  0  0  0
    2.3628   -9.7503    0.0916 H   0  0  0  0  0  0  0  0  0  0  0  0
    2.4002  -10.8768   -2.0967 H   0  0  0  0  0  0  0  0  0  0  0  0
   -1.5649   -9.4840   -2.8732 H   0  0  0  0  0  0  0  0  0  0  0  0
   -1.5979   -8.3680   -0.6794 H   0  0  0  0  0  0  0  0  0  0  0  0
   -1.5868  -11.1759   -4.1081 H   0  0  0  0  0  0  0  0  0  0  0  0
   -0.9233   -9.7026   -4.8547 H   0  0  0  0  0  0  0  0  0  0  0  0
   -2.3478  -11.0670   -6.6910 H   0  0  0  0  0  0  0  0  0  0  0  0
   -1.3800  -12.0093   -7.6901 H   0  0  0  0  0  0  0  0  0  0  0  0
  1  6  2  0  0  0  0
  1  2  1  0  0  0  0
  1 35  1  0  0  0  0
  2  3  2  0  0  0  0
  2 36  1  0  0  0  0
  3  4  1  0  0  0  0
  3 37  1  0  0  0  0
  4  5  2  0  0  0  0
  4 34  1  0  0  0  0
  5  6  1  0  0  0  0
  5  7  1  0  0  0  0
  6 38  1  0  0  0  0
  7  8  1  0  0  0  0
  7 39  1  0  0  0  0
  7 40  1  0  0  0  0
  8  9  1  0  0  0  0
  9 22  1  0  0  0  0
  9 10  2  0  0  0  0
 10 11  1  0  0  0  0
 11 12  2  0  0  0  0
 11 13  1  0  0  0  0
 13 14  1  6  0  0  0
 13 21  1  0  0  0  0
 13 15  1  0  0  0  0
 15 16  1  1  0  0  0
 15 17  1  0  0  0  0
 15 23  1  0  0  0  0
 17 18  1  0  0  0  0
 17 41  1  0  0  0  0
 17 42  1  0  0  0  0
 18 19  2  0  0  0  0
 18 20  1  0  0  0  0
 20 21  1  0  0  0  0
 20 43  1  0  0  0  0
 21 22  2  0  0  0  0
 23 28  2  0  0  0  0
 23 24  1  0  0  0  0
 24 25  2  0  0  0  0
 24 44  1  0  0  0  0
 25 26  1  0  0  0  0
 25 45  1  0  0  0  0
 26 27  2  0  0  0  0
 26 29  1  0  0  0  0
 27 28  1  0  0  0  0
 27 46  1  0  0  0  0
 28 47  1  0  0  0  0
 29 30  1  0  0  0  0
 30 31  1  0  0  0  0
 30 48  1  0  0  0  0
 30 49  1  0  0  0  0
 31 32  2  0  0  0  0
 31 33  1  0  0  0  0
 33 50  1  0  0  0  0
 33 51  1  0  0  0  0
M  END
$$$$
ZINC13060968
 OpenBabel01252620473D

 53 54  0  0  0  0  0  0  0  0999 V2000
   -0.0948   -2.6359   -1.0757 C   0  0  0  0  0  0  0  0  0  0  0  0
   -1.2849   -2.0081   -0.3971 C   0  0  0  0  0  0  0  0  0  0  0  0
   -1.1939   -0.7203    0.1152 C   0  0  0  0  0  0  0  0  0  0  0  0
   -2.2946   -0.1431    0.7348 C   0  0  0  0  0  0  0  0  0  0  0  0
   -3.4748   -0.8524    0.8449 C   0  0  0  0  0  0  0  0  0  0  0  0
   -3.5616   -2.1360    0.3390 C   0  0  0  0  0  0  0  0  0  0  0  0
   -2.4666   -2.7149   -0.2789 C   0  0  0  0  0  0  0  0  0  0  0  0
   -2.5800   -4.3271   -0.9127 Cl  0  0  0  0  0  0  0  0  0  0  0  0
    0.0021   -0.0041    0.0020 N   0  0  0  0  0  0  0  0  0  0  0  0
   -0.0196    1.2871   -0.3838 C   0  0  0  0  0  0  0  0  0  0  0  0
   -1.4925    2.0096   -0.8732 S   0  0  0  0  0  0  0  0  0  0  0  0
    1.1192    2.0079   -0.3896 N   0  0  0  0  0  0  0  0  0  0  0  0
    2.3255    1.4150    0.0055 N   0  0  0  0  0  0  0  0  0  0  0  0
    3.4220    2.1090   -0.0001 C   0  0  0  0  0  0  0  0  0  0  0  0
    3.3978    3.5528   -0.4315 C   0  0  0  0  0  0  0  0  0  0  0  0
    4.6919    1.4849    0.4157 C   0  0  0  0  0  0  0  0  0  0  0  0
    5.8751    2.2273    0.4055 C   0  0  0  0  0  0  0  0  0  0  0  0
    7.0581    1.6386    0.8012 C   0  0  0  0  0  0  0  0  0  0  0  0
    7.0767    0.3127    1.1962 C   0  0  0  0  0  0  0  0  0  0  0  0
    5.9094   -0.4304    1.2034 C   0  0  0  0  0  0  0  0  0  0  0  0
    4.7181    0.1469    0.8162 C   0  0  0  0  0  0  0  0  0  0  0  0
    8.5938   -0.4330    1.6930 S   0  0  0  0  0  0  0  0  0  0  0  0
    9.4447    0.6223    2.1189 O   0  0  0  0  0  0  0  0  0  0  0  0
    8.2528   -1.5244    2.5368 O   0  0  0  0  0  0  0  0  0  0  0  0
    9.2875   -1.0822    0.3366 N   0  0  0  0  0  0  0  0  0  0  0  0
    9.7309   -0.2058   -0.7504 C   0  0  0  0  0  0  0  0  0  0  0  0
   10.6524   -0.9855   -1.6905 C   0  0  0  0  0  0  0  0  0  0  0  0
   11.1154   -0.0702   -2.8257 C   0  0  0  0  0  0  0  0  0  0  0  0
   12.0230   -0.8382   -3.7517 C   0  0  0  0  0  0  0  0  0  0  0  0
   12.2738   -1.9986   -3.5267 O   0  0  0  0  0  0  0  0  0  0  0  0
    0.5054   -3.1680   -0.3377 H   0  0  0  0  0  0  0  0  0  0  0  0
   -0.4383   -3.3357   -1.8375 H   0  0  0  0  0  0  0  0  0  0  0  0
    0.5093   -1.8581   -1.5427 H   0  0  0  0  0  0  0  0  0  0  0  0
   -2.2278    0.8595    1.1307 H   0  0  0  0  0  0  0  0  0  0  0  0
   -4.3307   -0.4037    1.3271 H   0  0  0  0  0  0  0  0  0  0  0  0
   -4.4856   -2.6883    0.4264 H   0  0  0  0  0  0  0  0  0  0  0  0
    0.8471   -0.4366    0.2012 H   0  0  0  0  0  0  0  0  0  0  0  0
    1.1036    2.9372   -0.6672 H   0  0  0  0  0  0  0  0  0  0  0  0
    3.2151    4.1879    0.4353 H   0  0  0  0  0  0  0  0  0  0  0  0
    4.3569    3.8146   -0.8782 H   0  0  0  0  0  0  0  0  0  0  0  0
    2.6037    3.6999   -1.1636 H   0  0  0  0  0  0  0  0  0  0  0  0
    5.8629    3.2610    0.0928 H   0  0  0  0  0  0  0  0  0  0  0  0
    7.9728    2.2129    0.7987 H   0  0  0  0  0  0  0  0  0  0  0  0
    5.9312   -1.4648    1.5133 H   0  0  0  0  0  0  0  0  0  0  0  0
    3.8077   -0.4340    0.8230 H   0  0  0  0  0  0  0  0  0  0  0  0
    9.4003   -2.0427    0.2619 H   0  0  0  0  0  0  0  0  0  0  0  0
    8.8637    0.1516   -1.3056 H   0  0  0  0  0  0  0  0  0  0  0  0
   10.2715    0.6443   -0.3342 H   0  0  0  0  0  0  0  0  0  0  0  0
   11.5196   -1.3430   -1.1353 H   0  0  0  0  0  0  0  0  0  0  0  0
   10.1118   -1.8356   -2.1067 H   0  0  0  0  0  0  0  0  0  0  0  0
   10.2482    0.2872   -3.3809 H   0  0  0  0  0  0  0  0  0  0  0  0
   11.6560    0.7798   -2.4096 H   0  0  0  0  0  0  0  0  0  0  0  0
   12.5529   -0.2332   -4.8264 O   0  0  0  0  0  1  0  0  0  0  0  0
  1  2  1  0  0  0  0
  1 31  1  0  0  0  0
  1 32  1  0  0  0  0
  1 33  1  0  0  0  0
  2  7  2  0  0  0  0
  2  3  1  0  0  0  0
  3  4  2  0  0  0  0
  3  9  1  0  0  0  0
  4  5  1  0  0  0  0
  4 34  1  0  0  0  0
  5  6  2  0  0  0  0
  5 35  1  0  0  0  0
  6  7  1  0  0  0  0
  6 36  1  0  0  0  0
  7  8  1  0  0  0  0
  9 10  1  0  0  0  0
  9 37  1  0  0  0  0
 10 11  2  0  0  0  0
 10 12  1  0  0  0  0
 12 13  1  0  0  0  0
 12 38  1  0  0  0  0
 13 14  2  0  0  0  0
 14 15  1  0  0  0  0
 14 16  1  0  0  0  0
 15 39  1  0  0  0  0
 15 40  1  0  0  0  0
 15 41  1  0  0  0  0
 16 21  2  0  0  0  0
 16 17  1  0  0  0  0
 17 18  2  0  0  0  0
 17 42  1  0  0  0  0
 18 19  1  0  0  0  0
 18 43  1  0  0  0  0
 19 20  2  0  0  0  0
 19 22  1  0  0  0  0
 20 21  1  0  0  0  0
 20 44  1  0  0  0  0
 21 45  1  0  0  0  0
 22 23  2  0  0  0  0
 22 24  2  0  0  0  0
 22 25  1  0  0  0  0
 25 26  1  0  0  0  0
 25 46  1  0  0  0  0
 26 27  1  0  0  0  0
 26 47  1  0  0  0  0
 26 48  1  0  0  0  0
 27 28  1  0  0  0  0
 27 49  1  0  0  0  0
 27 50  1  0  0  0  0
 28 29  1  0  0  0  0
 28 51  1  0  0  0  0
 28 52  1  0  0  0  0
 29 30  2  0  0  0  0
 29 53  1  0  0  0  0
M  END
$$$$
ZINC50351399
 OpenBabel01252620473D

 32 33  0  0  0  0  0  0  0  0999 V2000
   -0.0167    1.3783    0.0096 C   0  0  0  0  0  0  0  0  0  0  0  0
    1.1690    2.0868    0.0021 C   0  0  0  0  0  0  0  0  0  0  0  0
    2.3814    1.4092   -0.0131 C   0  0  0  0  0  0  0  0  0  0  0  0
    2.3972    0.0201   -0.0208 C   0  0  0  0  0  0  0  0  0  0  0  0
    1.2079   -0.6825   -0.0132 C   0  0  0  0  0  0  0  0  0  0  0  0
    0.0021   -0.0041    0.0020 C   0  0  0  0  0  0  0  0  0  0  0  0
    1.2299   -2.7774   -0.0247 I   0  0  0  0  0  0  0  0  0  0  0  0
    3.5820    2.1229   -0.0212 N   0  0  0  0  0  2  0  0  0  0  0  0
    5.0264    1.3131   -0.0394 S   0  0  0  0  0  0  0  0  0  0  0  0
    5.0599    0.6037    1.1914 O   0  0  0  0  0  0  0  0  0  0  0  0
    5.0359    0.6162   -1.2777 O   0  0  0  0  0  0  0  0  0  0  0  0
    6.2903    2.6144   -0.0451 C   0  0  0  0  0  0  0  0  0  0  0  0
    6.0185    3.5738   -1.2000 C   0  0  0  0  0  0  0  0  0  0  0  0
    6.9009    4.8175   -1.0650 C   0  0  0  0  0  0  0  0  0  0  0  0
    8.6438    4.3182   -1.1911 S   0  0  0  0  0  0  0  0  0  0  0  0
    9.4573    5.4122   -0.7903 O   0  0  0  0  0  0  0  0  0  0  0  0
    8.8540    3.7293   -2.4671 O   0  0  0  0  0  0  0  0  0  0  0  0
    8.7578    3.0190    0.0745 C   0  0  0  0  0  0  0  0  0  0  0  0
    7.6686    1.9756   -0.1874 C   0  0  0  0  0  0  0  0  0  0  0  0
   -0.9595    1.9048    0.0260 H   0  0  0  0  0  0  0  0  0  0  0  0
    1.1535    3.1667    0.0077 H   0  0  0  0  0  0  0  0  0  0  0  0
    3.3382   -0.5098   -0.0330 H   0  0  0  0  0  0  0  0  0  0  0  0
   -0.9265   -0.5556    0.0079 H   0  0  0  0  0  0  0  0  0  0  0  0
    6.2444    3.1635    0.8953 H   0  0  0  0  0  0  0  0  0  0  0  0
    6.2380    3.0751   -2.1441 H   0  0  0  0  0  0  0  0  0  0  0  0
    4.9699    3.8708   -1.1846 H   0  0  0  0  0  0  0  0  0  0  0  0
    6.6642    5.5214   -1.8628 H   0  0  0  0  0  0  0  0  0  0  0  0
    6.7247    5.2869   -0.0972 H   0  0  0  0  0  0  0  0  0  0  0  0
    9.7378    2.5445    0.0234 H   0  0  0  0  0  0  0  0  0  0  0  0
    8.6135    3.4575    1.0619 H   0  0  0  0  0  0  0  0  0  0  0  0
    7.7664    1.1622    0.5316 H   0  0  0  0  0  0  0  0  0  0  0  0
    7.7817    1.5800   -1.1967 H   0  0  0  0  0  0  0  0  0  0  0  0
  1  6  2  0  0  0  0
  1  2  1  0  0  0  0
  1 20  1  0  0  0  0
  2  3  2  0  0  0  0
  2 21  1  0  0  0  0
  3  4  1  0  0  0  0
  3  8  1  0  0  0  0
  4  5  2  0  0  0  0
  4 22  1  0  0  0  0
  5  6  1  0  0  0  0
  5  7  1  0  0  0  0
  6 23  1  0  0  0  0
  8  9  1  0  0  0  0
  9 10  2  0  0  0  0
  9 11  2  0  0  0  0
  9 12  1  0  0  0  0
 12 19  1  0  0  0  0
 12 13  1  0  0  0  0
 12 24  1  0  0  0  0
 13 14  1  0  0  0  0
 13 25  1  0  0  0  0
 13 26  1  0  0  0  0
 14 15  1  0  0  0  0
 14 27  1  0  0  0  0
 14 28  1  0  0  0  0
 15 16  2  0  0  0  0
 15 17  2  0  0  0  0
 15 18  1  0  0  0  0
 18 19  1  0  0  0  0
 18 29  1  0  0  0  0
 18 30  1  0  0  0  0
 19 31  1  0  0  0  0
 19 32  1  0  0  0  0
M  END
$$$$
ZINC46302361
 OpenBabel01252620473D

 55 56  0  0  1  0  0  0  0  0999 V2000
   -0.0127    1.0858    0.0080 C   0  0  0  0  0  0  0  0  0  0  0  0
   -0.7416    1.5850   -1.2129 C   0  0  0  0  0  0  0  0  0  0  0  0
   -2.1064    1.7992   -1.1728 C   0  0  0  0  0  0  0  0  0  0  0  0
   -2.7418    2.2620   -2.3247 C   0  0  0  0  0  0  0  0  0  0  0  0
   -4.0784    2.4858   -2.3293 O   0  5  0  0  0  0  0  0  0  0  0  0
   -2.0193    2.4807   -3.4162 N   0  0  0  0  0  0  0  0  0  0  0  0
   -0.7117    2.2634   -3.4154 C   0  0  0  0  0  0  0  0  0  0  0  0
   -0.0804    1.8286   -2.3343 N   0  0  0  0  0  0  0  0  0  0  0  0
    0.2107    2.5664   -4.8858 S   0  0  0  0  0  0  0  0  0  0  0  0
   -1.0336    3.1415   -6.0738 C   0  0  0  0  0  0  0  0  0  0  0  0
   -0.3686    3.4403   -7.3927 C   0  0  0  0  0  0  0  0  0  0  0  0
    0.8266    3.2810   -7.5188 O   0  0  0  0  0  0  0  0  0  0  0  0
   -1.1026    3.8846   -8.4321 N   0  0  0  0  0  0  0  0  0  0  0  0
   -0.5078    4.1518   -9.6117 C   0  0  0  0  0  0  0  0  0  0  0  0
    0.6904    3.9921   -9.7381 O   0  0  0  0  0  0  0  0  0  0  0  0
   -1.2418    4.5961  -10.6511 N   0  0  0  0  0  0  0  0  0  0  0  0
   -0.5953    4.8866  -11.9332 C   0  0  1  0  0  0  0  0  0  0  0  0
    0.4011    5.2905  -11.7545 H   0  0  0  0  0  0  0  0  0  0  0  0
   -0.4842    3.5987  -12.7517 C   0  0  0  0  0  0  0  0  0  0  0  0
    0.1909    3.9020  -14.0908 C   0  0  0  0  0  0  0  0  0  0  0  0
   -0.6437    4.9262  -14.8623 C   0  0  0  0  0  0  0  0  0  0  0  0
   -0.7548    6.2141  -14.0439 C   0  0  1  0  0  0  0  0  0  0  0  0
   -1.3494    6.9437  -14.5935 H   0  0  0  0  0  0  0  0  0  0  0  0
   -1.4300    5.9108  -12.7048 C   0  0  2  0  0  0  0  0  0  0  0  0
   -2.4264    5.5068  -12.8836 H   0  0  0  0  0  0  0  0  0  0  0  0
   -1.5411    7.1987  -11.8863 C   0  0  0  0  0  0  0  0  0  0  0  0
    0.6439    6.7811  -13.7929 C   0  0  0  0  0  0  0  0  0  0  0  0
   -2.8905    1.5379    0.0873 C   0  0  0  0  0  0  0  0  0  0  0  0
   -2.9300    2.8100    0.9364 C   0  0  0  0  0  0  0  0  0  0  0  0
   -3.7141    2.5488    2.1966 C   0  0  0  0  0  0  0  0  0  0  0  0
   -4.1966    1.4472    2.3970 O   0  0  0  0  0  0  0  0  0  0  0  0
   -3.8659    3.4390    3.0157 O   0  0  0  0  0  1  0  0  0  0  0  0
    0.0021   -0.0041    0.0020 H   0  0  0  0  0  0  0  0  0  0  0  0
    1.0099    1.4631    0.0003 H   0  0  0  0  0  0  0  0  0  0  0  0
   -0.5229    1.4373    0.9048 H   0  0  0  0  0  0  0  0  0  0  0  0
   -1.7874    2.3668   -6.2142 H   0  0  0  0  0  0  0  0  0  0  0  0
   -1.5086    4.0458   -5.6933 H   0  0  0  0  0  0  0  0  0  0  0  0
   -2.0589    4.0121   -8.3313 H   0  0  0  0  0  0  0  0  0  0  0  0
   -2.1981    4.7236  -10.5502 H   0  0  0  0  0  0  0  0  0  0  0  0
    0.1104    2.8690  -12.2020 H   0  0  0  0  0  0  0  0  0  0  0  0
   -1.4807    3.1947  -12.9305 H   0  0  0  0  0  0  0  0  0  0  0  0
    1.1874    4.3060  -13.9120 H   0  0  0  0  0  0  0  0  0  0  0  0
    0.2701    2.9845  -14.6738 H   0  0  0  0  0  0  0  0  0  0  0  0
   -0.1627    5.1423  -15.8163 H   0  0  0  0  0  0  0  0  0  0  0  0
   -1.6402    4.5222  -15.0411 H   0  0  0  0  0  0  0  0  0  0  0  0
   -0.5446    7.6026  -11.7076 H   0  0  0  0  0  0  0  0  0  0  0  0
   -2.1357    7.9283  -12.4360 H   0  0  0  0  0  0  0  0  0  0  0  0
   -2.0221    6.9826  -10.9324 H   0  0  0  0  0  0  0  0  0  0  0  0
    1.1249    6.9972  -14.7469 H   0  0  0  0  0  0  0  0  0  0  0  0
    0.5648    7.6986  -13.2098 H   0  0  0  0  0  0  0  0  0  0  0  0
    1.2385    6.0515  -13.2432 H   0  0  0  0  0  0  0  0  0  0  0  0
   -3.9072    1.2425   -0.1720 H   0  0  0  0  0  0  0  0  0  0  0  0
   -2.4129    0.7380    0.6532 H   0  0  0  0  0  0  0  0  0  0  0  0
   -1.9133    3.1055    1.1958 H   0  0  0  0  0  0  0  0  0  0  0  0
   -3.4076    3.6099    0.3706 H   0  0  0  0  0  0  0  0  0  0  0  0
  1 33  1  0  0  0  0
  1 34  1  0  0  0  0
  1 35  1  0  0  0  0
  1  2  1  0  0  0  0
  2  3  2  0  0  0  0
  2  8  1  0  0  0  0
  3  4  1  0  0  0  0
  3 28  1  0  0  0  0
  4  6  2  0  0  0  0
  4  5  1  0  0  0  0
  6  7  1  0  0  0  0
  7  8  2  0  0  0  0
  7  9  1  0  0  0  0
  9 10  1  0  0  0  0
 10 11  1  0  0  0  0
 10 36  1  0  0  0  0
 10 37  1  0  0  0  0
 11 12  2  0  0  0  0
 11 13  1  0  0  0  0
 13 14  1  0  0  0  0
 13 38  1  0  0  0  0
 14 15  2  0  0  0  0
 14 16  1  0  0  0  0
 16 17  1  0  0  0  0
 16 39  1  0  0  0  0
 17 18  1  1  0  0  0
 17 24  1  0  0  0  0
 17 19  1  0  0  0  0
 19 20  1  0  0  0  0
 19 40  1  0  0  0  0
 19 41  1  0  0  0  0
 20 21  1  0  0  0  0
 20 42  1  0  0  0  0
 20 43  1  0  0  0  0
 21 22  1  0  0  0  0
 21 44  1  0  0  0  0
 21 45  1  0  0  0  0
 22 23  1  6  0  0  0
 22 24  1  0  0  0  0
 22 27  1  0  0  0  0
 24 25  1  6  0  0  0
 24 26  1  0  0  0  0
 26 46  1  0  0  0  0
 26 47  1  0  0  0  0
 26 48  1  0  0  0  0
 27 49  1  0  0  0  0
 27 50  1  0  0  0  0
 27 51  1  0  0  0  0
 28 29  1  0  0  0  0
 28 52  1  0  0  0  0
 28 53  1  0  0  0  0
 29 30  1  0  0  0  0
 29 54  1  0  0  0  0
 29 55  1  0  0  0  0
 30 31  2  0  0  0  0
 30 32  1  0  0  0  0
M  CHG  1   5  -1
M  END
$$$$
ZINC13392207
 OpenBabel01252620473D

 39 40  0  0  1  0  0  0  0  0999 V2000
   -4.0667   -1.3120   -1.1563 C   0  0  0  0  0  0  0  0  0  0  0  0
   -3.6935   -0.9794    0.2897 C   0  0  1  0  0  0  0  0  0  0  0  0
   -3.5952   -1.9024    0.8611 H   0  0  0  0  0  0  0  0  0  0  0  0
   -2.3844   -0.2332    0.3118 C   0  0  0  0  0  0  0  0  0  0  0  0
   -2.3765    0.9740    0.4278 O   0  0  0  0  0  0  0  0  0  0  0  0
   -1.2225   -0.9073    0.2025 N   0  0  0  0  0  0  0  0  0  0  0  0
   -0.0108   -0.2310    0.3240 C   0  0  0  0  0  0  0  0  0  0  0  0
    0.1201    1.0571   -0.1747 C   0  0  0  0  0  0  0  0  0  0  0  0
    1.3333    1.7301   -0.0508 C   0  0  0  0  0  0  0  0  0  0  0  0
    2.4185    1.1098    0.5745 C   0  0  0  0  0  0  0  0  0  0  0  0
    2.2935   -0.1676    1.0713 C   0  0  0  0  0  0  0  0  0  0  0  0
    1.0803   -0.8501    0.9513 C   0  0  0  0  0  0  0  0  0  0  0  0
    0.9469   -2.2200    1.4842 C   0  0  0  0  0  0  0  0  0  0  0  0
   -0.0796   -2.8444    1.3046 O   0  0  0  0  0  0  0  0  0  0  0  0
    1.4736    3.1038   -0.5824 C   0  0  0  0  0  0  0  0  0  0  0  0
    0.5315    3.6436   -1.1263 O   0  0  0  0  0  0  0  0  0  0  0  0
   -4.9904    0.0528    1.0268 S   0  0  0  0  0  0  0  0  0  0  0  0
   -6.3890   -1.0156    1.1112 C   0  0  0  0  0  0  0  0  0  0  0  0
   -7.2343   -1.1443    0.0156 C   0  0  0  0  0  0  0  0  0  0  0  0
   -8.3256   -1.9876    0.0832 C   0  0  0  0  0  0  0  0  0  0  0  0
   -8.5851   -2.6939    1.2436 C   0  0  0  0  0  0  0  0  0  0  0  0
   -7.7495   -2.5636    2.3379 C   0  0  0  0  0  0  0  0  0  0  0  0
   -6.6526   -1.7273    2.2754 C   0  0  0  0  0  0  0  0  0  0  0  0
   -9.7596   -3.5918    1.3143 N   0  0  0  0  0  4  0  0  0  0  0  0
   -9.9893   -4.2148    2.3354 O   0  0  0  0  0  0  0  0  0  0  0  0
  -10.4965   -3.7076    0.3514 O   0  5  0  0  0  0  0  0  0  0  0  0
   -3.3301   -1.9991   -1.5728 H   0  0  0  0  0  0  0  0  0  0  0  0
   -5.0519   -1.7778   -1.1794 H   0  0  0  0  0  0  0  0  0  0  0  0
   -4.0839   -0.3961   -1.7470 H   0  0  0  0  0  0  0  0  0  0  0  0
   -1.2300   -1.8634    0.0392 H   0  0  0  0  0  0  0  0  0  0  0  0
   -0.7163    1.5357   -0.6624 H   0  0  0  0  0  0  0  0  0  0  0  0
    3.3578    1.6346    0.6685 H   0  0  0  0  0  0  0  0  0  0  0  0
    3.1344   -0.6432    1.5541 H   0  0  0  0  0  0  0  0  0  0  0  0
   -7.0350   -0.5894   -0.8892 H   0  0  0  0  0  0  0  0  0  0  0  0
   -8.9801   -2.0921   -0.7696 H   0  0  0  0  0  0  0  0  0  0  0  0
   -7.9550   -3.1170    3.2423 H   0  0  0  0  0  0  0  0  0  0  0  0
   -6.0001   -1.6266    3.1301 H   0  0  0  0  0  0  0  0  0  0  0  0
    1.9636   -2.7781    2.1699 O   0  0  0  0  0  1  0  0  0  0  0  0
    2.6462    3.7556   -0.4632 O   0  0  0  0  0  1  0  0  0  0  0  0
  1  2  1  0  0  0  0
  1 27  1  0  0  0  0
  1 28  1  0  0  0  0
  1 29  1  0  0  0  0
  2  3  1  1  0  0  0
  2  4  1  0  0  0  0
  2 17  1  0  0  0  0
  4  5  2  0  0  0  0
  4  6  1  0  0  0  0
  6  7  1  0  0  0  0
  6 30  1  0  0  0  0
  7 12  2  0  0  0  0
  7  8  1  0  0  0  0
  8  9  2  0  0  0  0
  8 31  1  0  0  0  0
  9 10  1  0  0  0  0
  9 15  1  0  0  0  0
 10 11  2  0  0  0  0
 10 32  1  0  0  0  0
 11 12  1  0  0  0  0
 11 33  1  0  0  0  0
 12 13  1  0  0  0  0
 13 14  2  0  0  0  0
 13 38  1  0  0  0  0
 15 16  2  0  0  0  0
 15 39  1  0  0  0  0
 17 18  1  0  0  0  0
 18 23  2  0  0  0  0
 18 19  1  0  0  0  0
 19 20  2  0  0  0  0
 19 34  1  0  0  0  0
 20 21  1  0  0  0  0
 20 35  1  0  0  0  0
 21 22  2  0  0  0  0
 21 24  1  0  0  0  0
 22 23  1  0  0  0  0
 22 36  1  0  0  0  0
 23 37  1  0  0  0  0
 24 25  2  0  0  0  0
 24 26  1  0  0  0  0
M  CHG  1  26  -1
M  END
$$$$
ZINC13396026
 OpenBabel01252620473D

 51 53  0  0  0  0  0  0  0  0999 V2000
    0.0470   -4.0687   -1.0192 C   0  0  0  0  0  0  0  0  0  0  0  0
    0.0336   -2.6589   -0.4871 C   0  0  0  0  0  0  0  0  0  0  0  0
    0.0400   -2.2360    0.7978 C   0  0  0  0  0  0  0  0  0  0  0  0
    0.0239   -0.8696    1.0586 C   0  0  0  0  0  0  0  0  0  0  0  0
    0.0021   -0.0041    0.0020 C   0  0  0  0  0  0  0  0  0  0  0  0
   -0.0038   -1.1203   -1.3908 S   0  0  0  0  0  0  0  0  0  0  0  0
   -0.0184    1.5028    0.0103 C   0  0  0  0  0  0  0  0  0  0  0  0
    0.0307   -0.3633    2.4543 C   0  0  0  0  0  0  0  0  0  0  0  0
    0.0472   -1.2245    3.5149 C   0  0  0  0  0  0  0  0  0  0  0  0
    0.0496   -0.0714    4.8797 S   0  0  0  0  0  0  0  0  0  0  0  0
    0.0208    1.3913    3.9450 C   0  0  0  0  0  0  0  0  0  0  0  0
    0.0153    0.9372    2.7085 N   0  0  0  0  0  0  0  0  0  0  0  0
    0.0067    2.7080    4.3890 N   0  0  0  0  0  0  0  0  0  0  0  0
    0.0156    2.9737    5.7102 C   0  0  0  0  0  0  0  0  0  0  0  0
    0.0360    2.0637    6.5117 O   0  0  0  0  0  0  0  0  0  0  0  0
    0.0002    4.4017    6.1917 C   0  0  0  0  0  0  0  0  0  0  0  0
    0.0146    4.4242    7.7215 C   0  0  0  0  0  0  0  0  0  0  0  0
   -0.0010    5.8740    8.2103 C   0  0  0  0  0  0  0  0  0  0  0  0
    0.0127    5.8956    9.6751 N   0  0  0  0  0  0  0  0  0  0  0  0
    0.3721    7.2980   10.4792 S   0  0  0  0  0  0  0  0  0  0  0  0
    0.2781    7.0061   11.8667 O   0  0  0  0  0  0  0  0  0  0  0  0
    1.5569    7.8131    9.8876 O   0  0  0  0  0  0  0  0  0  0  0  0
   -0.9124    8.4490   10.1186 C   0  0  0  0  0  0  0  0  0  0  0  0
   -0.7956    9.2917    9.0274 C   0  0  0  0  0  0  0  0  0  0  0  0
   -1.7997   10.1918    8.7366 C   0  0  0  0  0  0  0  0  0  0  0  0
   -2.9308   10.2587    9.5525 C   0  0  0  0  0  0  0  0  0  0  0  0
   -3.0397    9.4090   10.6551 C   0  0  0  0  0  0  0  0  0  0  0  0
   -2.0306    8.5099   10.9313 C   0  0  0  0  0  0  0  0  0  0  0  0
   -4.0077   11.2237    9.2502 C   0  0  0  0  0  0  0  0  0  0  0  0
   -4.9907   11.2793    9.9616 O   0  0  0  0  0  0  0  0  0  0  0  0
   -0.9773   -4.4220   -1.1380 H   0  0  0  0  0  0  0  0  0  0  0  0
    0.5522   -4.0878   -1.9849 H   0  0  0  0  0  0  0  0  0  0  0  0
    0.5758   -4.7161   -0.3197 H   0  0  0  0  0  0  0  0  0  0  0  0
    0.0570   -2.9486    1.6091 H   0  0  0  0  0  0  0  0  0  0  0  0
    1.0042    1.8801    0.0026 H   0  0  0  0  0  0  0  0  0  0  0  0
   -0.5455    1.8639   -0.8728 H   0  0  0  0  0  0  0  0  0  0  0  0
   -0.5286    1.8543    0.9071 H   0  0  0  0  0  0  0  0  0  0  0  0
    0.0569   -2.3044    3.5254 H   0  0  0  0  0  0  0  0  0  0  0  0
   -0.0097    3.4358    3.7480 H   0  0  0  0  0  0  0  0  0  0  0  0
    0.8794    4.9225    5.8124 H   0  0  0  0  0  0  0  0  0  0  0  0
   -0.9003    4.8976    5.8295 H   0  0  0  0  0  0  0  0  0  0  0  0
   -0.8646    3.9034    8.1008 H   0  0  0  0  0  0  0  0  0  0  0  0
    0.9151    3.9283    8.0837 H   0  0  0  0  0  0  0  0  0  0  0  0
    0.8782    6.3948    7.8310 H   0  0  0  0  0  0  0  0  0  0  0  0
   -0.9015    6.3699    7.8481 H   0  0  0  0  0  0  0  0  0  0  0  0
   -0.1886    5.0884   10.1740 H   0  0  0  0  0  0  0  0  0  0  0  0
    0.0817    9.2417    8.3995 H   0  0  0  0  0  0  0  0  0  0  0  0
   -1.7093   10.8459    7.8819 H   0  0  0  0  0  0  0  0  0  0  0  0
   -3.9121    9.4553   11.2900 H   0  0  0  0  0  0  0  0  0  0  0  0
   -2.1137    7.8519   11.7837 H   0  0  0  0  0  0  0  0  0  0  0  0
   -3.8995   12.0420    8.1856 O   0  0  0  0  0  1  0  0  0  0  0  0
  1  2  1  0  0  0  0
  1 31  1  0  0  0  0
  1 32  1  0  0  0  0
  1 33  1  0  0  0  0
  2  6  1  0  0  0  0
  2  3  2  0  0  0  0
  3  4  1  0  0  0  0
  3 34  1  0  0  0  0
  4  5  2  0  0  0  0
  4  8  1  0  0  0  0
  5  6  1  0  0  0  0
  5  7  1  0  0  0  0
  7 35  1  0  0  0  0
  7 36  1  0  0  0  0
  7 37  1  0  0  0  0
  8 12  1  0  0  0  0
  8  9  2  0  0  0  0
  9 10  1  0  0  0  0
  9 38  1  0  0  0  0
 10 11  1  0  0  0  0
 11 12  2  0  0  0  0
 11 13  1  0  0  0  0
 13 14  1  0  0  0  0
 13 39  1  0  0  0  0
 14 15  2  0  0  0  0
 14 16  1  0  0  0  0
 16 17  1  0  0  0  0
 16 40  1  0  0  0  0
 16 41  1  0  0  0  0
 17 18  1  0  0  0  0
 17 42  1  0  0  0  0
 17 43  1  0  0  0  0
 18 19  1  0  0  0  0
 18 44  1  0  0  0  0
 18 45  1  0  0  0  0
 19 20  1  0  0  0  0
 19 46  1  0  0  0  0
 20 21  2  0  0  0  0
 20 22  2  0  0  0  0
 20 23  1  0  0  0  0
 23 28  2  0  0  0  0
 23 24  1  0  0  0  0
 24 25  2  0  0  0  0
 24 47  1  0  0  0  0
 25 26  1  0  0  0  0
 25 48  1  0  0  0  0
 26 27  2  0  0  0  0
 26 29  1  0  0  0  0
 27 28  1  0  0  0  0
 27 49  1  0  0  0  0
 28 50  1  0  0  0  0
 29 30  2  0  0  0  0
 29 51  1  0  0  0  0
M  END
$$$$
ZINC43703088
 OpenBabel01252620473D

 32 32  0  0  1  0  0  0  0  0999 V2000
   -0.0187    1.5258    0.0104 C   0  0  0  0  0  0  0  0  0  0  0  0
    0.0021   -0.0041    0.0020 C   0  0  0  0  0  0  0  0  0  0  0  0
   -1.4333   -0.5336    0.0129 C   0  0  0  0  0  0  0  0  0  0  0  0
   -1.4126   -2.0635    0.0045 C   0  0  0  0  0  0  0  0  0  0  0  0
   -3.1144   -2.6914    0.0173 S   0  0  0  0  0  0  0  0  0  0  0  0
   -3.7367   -2.3933    1.2596 O   0  0  0  0  0  0  0  0  0  0  0  0
   -3.7602   -2.3800   -1.2095 O   0  0  0  0  0  0  0  0  0  0  0  0
   -2.9598   -4.3401    0.0070 N   0  0  0  0  0  0  0  0  0  0  0  0
   -2.8949   -5.0869   -1.2593 C   0  0  0  0  0  0  0  0  0  0  0  0
   -3.9151   -6.2295   -1.1995 C   0  0  0  0  0  0  0  0  0  0  0  0
   -3.7051   -6.9860   -0.0048 O   0  0  0  0  0  0  0  0  0  0  0  0
   -3.9035   -6.2435    1.2007 C   0  0  2  0  0  0  0  0  0  0  0  0
   -4.9124   -5.8310    1.2123 H   0  0  0  0  0  0  0  0  0  0  0  0
   -2.8770   -5.1010    1.2638 C   0  0  0  0  0  0  0  0  0  0  0  0
   -3.7176   -7.1525    2.3882 C   0  0  0  0  0  0  0  0  0  0  0  0
   -3.3520   -8.3038    2.2233 O   0  0  0  0  0  0  0  0  0  0  0  0
   -3.9328   -6.7365    3.5139 O   0  0  0  0  0  1  0  0  0  0  0  0
    1.0039    1.9031    0.0027 H   0  0  0  0  0  0  0  0  0  0  0  0
   -0.5459    1.8868   -0.8726 H   0  0  0  0  0  0  0  0  0  0  0  0
   -0.5289    1.8773    0.9072 H   0  0  0  0  0  0  0  0  0  0  0  0
    0.5123   -0.3556   -0.8948 H   0  0  0  0  0  0  0  0  0  0  0  0
    0.5293   -0.3651    0.8851 H   0  0  0  0  0  0  0  0  0  0  0  0
   -1.9435   -0.1821    0.9097 H   0  0  0  0  0  0  0  0  0  0  0  0
   -1.9605   -0.1726   -0.8702 H   0  0  0  0  0  0  0  0  0  0  0  0
   -0.9024   -2.4150   -0.8923 H   0  0  0  0  0  0  0  0  0  0  0  0
   -0.8854   -2.4246    0.8875 H   0  0  0  0  0  0  0  0  0  0  0  0
   -3.1354   -4.4231   -2.0897 H   0  0  0  0  0  0  0  0  0  0  0  0
   -1.8934   -5.4956   -1.3935 H   0  0  0  0  0  0  0  0  0  0  0  0
   -4.9241   -5.8170   -1.1966 H   0  0  0  0  0  0  0  0  0  0  0  0
   -3.7882   -6.8767   -2.0673 H   0  0  0  0  0  0  0  0  0  0  0  0
   -1.8737   -5.5112    1.3792 H   0  0  0  0  0  0  0  0  0  0  0  0
   -3.1056   -4.4466    2.1049 H   0  0  0  0  0  0  0  0  0  0  0  0
  1  2  1  0  0  0  0
  1 18  1  0  0  0  0
  1 19  1  0  0  0  0
  1 20  1  0  0  0  0
  2  3  1  0  0  0  0
  2 21  1  0  0  0  0
  2 22  1  0  0  0  0
  3  4  1  0  0  0  0
  3 23  1  0  0  0  0
  3 24  1  0  0  0  0
  4  5  1  0  0  0  0
  4 25  1  0  0  0  0
  4 26  1  0  0  0  0
  5  6  2  0  0  0  0
  5  7  2  0  0  0  0
  5  8  1  0  0  0  0
  8 14  1  0  0  0  0
  8  9  1  0  0  0  0
  9 10  1  0  0  0  0
  9 27  1  0  0  0  0
  9 28  1  0  0  0  0
 10 11  1  0  0  0  0
 10 29  1  0  0  0  0
 10 30  1  0  0  0  0
 11 12  1  0  0  0  0
 12 13  1  1  0  0  0
 12 14  1  0  0  0  0
 12 15  1  0  0  0  0
 14 31  1  0  0  0  0
 14 32  1  0  0  0  0
 15 16  2  0  0  0  0
 15 17  1  0  0  0  0
M  END
$$$$
ZINC13246956
 OpenBabel01252620473D

 44 46  0  0  0  0  0  0  0  0999 V2000
   -6.4448    5.6999    7.7032 C   0  0  0  0  0  0  0  0  0  0  0  0
   -6.5370    6.6558    8.6912 C   0  0  0  0  0  0  0  0  0  0  0  0
   -7.3423    7.7702    8.5093 C   0  0  0  0  0  0  0  0  0  0  0  0
   -8.0549    7.9340    7.3308 C   0  0  0  0  0  0  0  0  0  0  0  0
   -7.9671    6.9891    6.3319 C   0  0  0  0  0  0  0  0  0  0  0  0
   -7.1567    5.8616    6.5089 C   0  0  0  0  0  0  0  0  0  0  0  0
   -7.0585    4.8495    5.4483 C   0  0  0  0  0  0  0  0  0  0  0  0
   -6.1466    3.8502    5.5468 C   0  0  0  0  0  0  0  0  0  0  0  0
   -5.9658    2.6532    4.6998 C   0  0  0  0  0  0  0  0  0  0  0  0
   -6.6856    2.4316    3.7440 O   0  0  0  0  0  0  0  0  0  0  0  0
   -4.9816    1.8353    5.0330 N   0  0  0  0  0  0  0  0  0  0  0  0
   -4.1894    2.0821    6.0960 C   0  0  0  0  0  0  0  0  0  0  0  0
   -3.2600    1.4191    6.5155 O   0  0  0  0  0  0  0  0  0  0  0  0
   -4.8335    3.6189    6.7376 S   0  0  0  0  0  0  0  0  0  0  0  0
   -4.7503    0.6303    4.2325 C   0  0  0  0  0  0  0  0  0  0  0  0
   -3.7684    0.9489    3.1032 C   0  0  0  0  0  0  0  0  0  0  0  0
   -3.5371   -0.2560    2.3027 N   0  0  0  0  0  0  0  0  0  0  0  0
   -2.8246   -0.1361    0.8127 S   0  0  0  0  0  0  0  0  0  0  0  0
   -3.5139    0.8919    0.1145 O   0  0  0  0  0  0  0  0  0  0  0  0
   -2.7155   -1.4595    0.3069 O   0  0  0  0  0  0  0  0  0  0  0  0
   -1.1800    0.4431    1.0667 C   0  0  0  0  0  0  0  0  0  0  0  0
   -0.1512   -0.4629    1.2590 C   0  0  0  0  0  0  0  0  0  0  0  0
    1.1437   -0.0182    1.4530 C   0  0  0  0  0  0  0  0  0  0  0  0
    1.4179    1.3358    1.4623 C   0  0  0  0  0  0  0  0  0  0  0  0
    0.3826    2.2556    1.2745 C   0  0  0  0  0  0  0  0  0  0  0  0
   -0.9223    1.7976    1.0787 C   0  0  0  0  0  0  0  0  0  0  0  0
    0.6670    3.7043    1.2826 C   0  0  0  0  0  0  0  0  0  0  0  0
    1.8031    4.0994    1.4527 O   0  0  0  0  0  0  0  0  0  0  0  0
    3.0437    1.8930    1.7071 Cl  0  0  0  0  0  0  0  0  0  0  0  0
   -7.4326    8.7009    9.4845 F   0  0  0  0  0  0  0  0  0  0  0  0
   -5.8208    4.8304    7.8479 H   0  0  0  0  0  0  0  0  0  0  0  0
   -5.9845    6.5347    9.6112 H   0  0  0  0  0  0  0  0  0  0  0  0
   -8.6798    8.8044    7.1956 H   0  0  0  0  0  0  0  0  0  0  0  0
   -8.5220    7.1182    5.4144 H   0  0  0  0  0  0  0  0  0  0  0  0
   -7.7124    4.9012    4.5903 H   0  0  0  0  0  0  0  0  0  0  0  0
   -5.6945    0.2896    3.8077 H   0  0  0  0  0  0  0  0  0  0  0  0
   -4.3335   -0.1525    4.8663 H   0  0  0  0  0  0  0  0  0  0  0  0
   -2.8242    1.2897    3.5280 H   0  0  0  0  0  0  0  0  0  0  0  0
   -4.1852    1.7317    2.4694 H   0  0  0  0  0  0  0  0  0  0  0  0
   -3.8013   -1.1241    2.6455 H   0  0  0  0  0  0  0  0  0  0  0  0
   -0.3601   -1.5225    1.2529 H   0  0  0  0  0  0  0  0  0  0  0  0
    1.9422   -0.7307    1.5979 H   0  0  0  0  0  0  0  0  0  0  0  0
   -1.7271    2.5029    0.9326 H   0  0  0  0  0  0  0  0  0  0  0  0
   -0.3334    4.5882    1.1012 O   0  0  0  0  0  1  0  0  0  0  0  0
  1  6  2  0  0  0  0
  1  2  1  0  0  0  0
  1 31  1  0  0  0  0
  2  3  2  0  0  0  0
  2 32  1  0  0  0  0
  3  4  1  0  0  0  0
  3 30  1  0  0  0  0
  4  5  2  0  0  0  0
  4 33  1  0  0  0  0
  5  6  1  0  0  0  0
  5 34  1  0  0  0  0
  6  7  1  0  0  0  0
  7  8  2  0  0  0  0
  7 35  1  0  0  0  0
  8 14  1  0  0  0  0
  8  9  1  0  0  0  0
  9 10  2  0  0  0  0
  9 11  1  0  0  0  0
 11 12  1  0  0  0  0
 11 15  1  0  0  0  0
 12 13  2  0  0  0  0
 12 14  1  0  0  0  0
 15 16  1  0  0  0  0
 15 36  1  0  0  0  0
 15 37  1  0  0  0  0
 16 17  1  0  0  0  0
 16 38  1  0  0  0  0
 16 39  1  0  0  0  0
 17 18  1  0  0  0  0
 17 40  1  0  0  0  0
 18 19  2  0  0  0  0
 18 20  2  0  0  0  0
 18 21  1  0  0  0  0
 21 26  2  0  0  0  0
 21 22  1  0  0  0  0
 22 23  2  0  0  0  0
 22 41  1  0  0  0  0
 23 24  1  0  0  0  0
 23 42  1  0  0  0  0
 24 25  2  0  0  0  0
 24 29  1  0  0  0  0
 25 26  1  0  0  0  0
 25 27  1  0  0  0  0
 26 43  1  0  0  0  0
 27 28  2  0  0  0  0
 27 44  1  0  0  0  0
M  END
$$$$
ZINC22799391
 OpenBabel01252620473D

 42 43  0  0  0  0  0  0  0  0999 V2000
    0.7519    2.9496    2.4058 C   0  0  0  0  0  0  0  0  0  0  0  0
    1.0428    1.5848    1.7784 C   0  0  0  0  0  0  0  0  0  0  0  0
   -0.1529    1.0648    1.1936 O   0  0  0  0  0  0  0  0  0  0  0  0
   -0.0667   -0.1503    0.5893 C   0  0  0  0  0  0  0  0  0  0  0  0
    1.1432   -0.8244    0.5548 C   0  0  0  0  0  0  0  0  0  0  0  0
    1.2283   -2.0616   -0.0562 C   0  0  0  0  0  0  0  0  0  0  0  0
    0.1102   -2.6257   -0.6426 C   0  0  0  0  0  0  0  0  0  0  0  0
   -1.0991   -1.9573   -0.6171 C   0  0  0  0  0  0  0  0  0  0  0  0
   -1.1933   -0.7176   -0.0016 C   0  0  0  0  0  0  0  0  0  0  0  0
   -2.4185   -0.0382    0.0259 N   0  0  0  0  0  0  0  0  0  0  0  0
   -3.5732   -0.7269   -0.0685 C   0  0  0  0  0  0  0  0  0  0  0  0
   -3.5571   -1.9397   -0.0762 O   0  0  0  0  0  0  0  0  0  0  0  0
   -4.8843    0.0099   -0.1646 C   0  0  0  0  0  0  0  0  0  0  0  0
   -6.2402   -1.1836   -0.2782 S   0  0  0  0  0  0  0  0  0  0  0  0
   -7.6110   -0.0810   -0.3762 C   0  0  0  0  0  0  0  0  0  0  0  0
   -8.8756   -0.5797   -0.4777 N   0  0  0  0  0  0  0  0  0  0  0  0
   -9.9095    0.2898   -0.5513 C   0  0  0  0  0  0  0  0  0  0  0  0
  -11.0584   -0.1089   -0.6428 O   0  5  0  0  0  0  0  0  0  0  0  0
   -9.6216    1.6714   -0.5189 C   0  0  0  0  0  0  0  0  0  0  0  0
   -8.3744    2.0680   -0.4195 N   0  0  0  0  0  0  0  0  0  0  0  0
   -7.4071    1.2256   -0.3454 N   0  0  0  0  0  0  0  0  0  0  0  0
  -10.7366    2.6822   -0.5973 C   0  0  0  0  0  0  0  0  0  0  0  0
  -10.1499    4.0941   -0.5416 C   0  0  0  0  0  0  0  0  0  0  0  0
  -11.2649    5.1049   -0.6200 C   0  0  0  0  0  0  0  0  0  0  0  0
  -12.4112    4.7340   -0.7110 O   0  0  0  0  0  0  0  0  0  0  0  0
  -10.9846    6.4172   -0.5887 O   0  0  0  0  0  1  0  0  0  0  0  0
    1.6723    3.3499    2.8560 H   0  0  0  0  0  0  0  0  0  0  0  0
   -0.0185    2.8391    3.1832 H   0  0  0  0  0  0  0  0  0  0  0  0
    0.3927    3.6410    1.6293 H   0  0  0  0  0  0  0  0  0  0  0  0
    1.8132    1.6953    1.0010 H   0  0  0  0  0  0  0  0  0  0  0  0
    1.4020    0.8933    2.5549 H   0  0  0  0  0  0  0  0  0  0  0  0
    2.0193   -0.3849    1.0083 H   0  0  0  0  0  0  0  0  0  0  0  0
    2.1715   -2.5872   -0.0791 H   0  0  0  0  0  0  0  0  0  0  0  0
    0.1823   -3.5907   -1.1220 H   0  0  0  0  0  0  0  0  0  0  0  0
   -1.9706   -2.3998   -1.0765 H   0  0  0  0  0  0  0  0  0  0  0  0
   -2.4379    1.0572    0.1245 H   0  0  0  0  0  0  0  0  0  0  0  0
   -5.0200    0.6350    0.7303 H   0  0  0  0  0  0  0  0  0  0  0  0
   -4.8815    0.6480   -1.0606 H   0  0  0  0  0  0  0  0  0  0  0  0
  -11.2854    2.5502   -1.5414 H   0  0  0  0  0  0  0  0  0  0  0  0
  -11.4235    2.5369    0.2495 H   0  0  0  0  0  0  0  0  0  0  0  0
   -9.6011    4.2261    0.4025 H   0  0  0  0  0  0  0  0  0  0  0  0
   -9.4630    4.2394   -1.3884 H   0  0  0  0  0  0  0  0  0  0  0  0
  1  2  1  0  0  0  0
  1 27  1  0  0  0  0
  1 28  1  0  0  0  0
  1 29  1  0  0  0  0
  2  3  1  0  0  0  0
  2 30  1  0  0  0  0
  2 31  1  0  0  0  0
  3  4  1  0  0  0  0
  4  9  2  0  0  0  0
  4  5  1  0  0  0  0
  5  6  2  0  0  0  0
  5 32  1  0  0  0  0
  6  7  1  0  0  0  0
  6 33  1  0  0  0  0
  7  8  2  0  0  0  0
  7 34  1  0  0  0  0
  8  9  1  0  0  0  0
  8 35  1  0  0  0  0
  9 10  1  0  0  0  0
 10 11  1  0  0  0  0
 10 36  1  0  0  0  0
 11 12  2  0  0  0  0
 11 13  1  0  0  0  0
 13 14  1  0  0  0  0
 13 37  1  0  0  0  0
 13 38  1  0  0  0  0
 14 15  1  0  0  0  0
 15 21  2  0  0  0  0
 15 16  1  0  0  0  0
 16 17  2  0  0  0  0
 17 18  1  0  0  0  0
 17 19  1  0  0  0  0
 19 20  2  0  0  0  0
 19 22  1  0  0  0  0
 20 21  1  0  0  0  0
 22 23  1  0  0  0  0
 22 39  1  0  0  0  0
 22 40  1  0  0  0  0
 23 24  1  0  0  0  0
 23 41  1  0  0  0  0
 23 42  1  0  0  0  0
 24 25  2  0  0  0  0
 24 26  1  0  0  0  0
M  CHG  1  18  -1
M  END
$$$$
ZINC13551898
 OpenBabel01252620473D

 49 52  0  0  0  0  0  0  0  0999 V2000
    2.2754    1.8307   -1.0822 C   0  0  0  0  0  0  0  0  0  0  0  0
    2.5377    0.4985   -0.7986 C   0  0  0  0  0  0  0  0  0  0  0  0
    1.5602   -0.3068   -0.2483 C   0  0  0  0  0  0  0  0  0  0  0  0
    0.3042    0.2119    0.0262 C   0  0  0  0  0  0  0  0  0  0  0  0
    0.0319    1.5631   -0.2587 C   0  0  0  0  0  0  0  0  0  0  0  0
    1.0365    2.3674   -0.8174 C   0  0  0  0  0  0  0  0  0  0  0  0
   -1.2899    2.1226    0.0197 C   0  0  0  0  0  0  0  0  0  0  0  0
   -1.4042    3.3150    0.7083 C   0  0  0  0  0  0  0  0  0  0  0  0
   -2.6995    4.0132    0.8316 C   0  0  0  0  0  0  0  0  0  0  0  0
   -3.7069    3.5553    0.3266 O   0  5  0  0  0  0  0  0  0  0  0  0
   -2.7345    5.1732    1.5195 N   0  0  0  0  0  0  0  0  0  0  0  0
   -1.6321    5.6892    2.0805 C   0  0  0  0  0  0  0  0  0  0  0  0
   -1.7736    7.1666    2.9338 S   0  0  0  0  0  0  0  0  0  0  0  0
   -0.4249    5.1114    2.0094 N   0  0  0  0  0  0  0  0  0  0  0  0
   -0.2381    3.9445    1.3588 C   0  0  0  0  0  0  0  0  0  0  0  0
    0.8618    3.4276    1.3056 O   0  0  0  0  0  0  0  0  0  0  0  0
    0.6683    5.7311    2.6311 C   0  0  0  0  0  0  0  0  0  0  0  0
    0.9798    5.4319    3.9501 C   0  0  0  0  0  0  0  0  0  0  0  0
    2.0578    6.0436    4.5601 C   0  0  0  0  0  0  0  0  0  0  0  0
    2.8272    6.9537    3.8588 C   0  0  0  0  0  0  0  0  0  0  0  0
    2.5210    7.2552    2.5447 C   0  0  0  0  0  0  0  0  0  0  0  0
    1.4462    6.6425    1.9260 C   0  0  0  0  0  0  0  0  0  0  0  0
    1.1498    6.9331    0.6403 F   0  0  0  0  0  0  0  0  0  0  0  0
   -0.6562   -0.5779    0.5666 O   0  0  0  0  0  0  0  0  0  0  0  0
   -0.3061   -1.9384    0.8282 C   0  0  0  0  0  0  0  0  0  0  0  0
   -1.4901   -2.6563    1.4231 C   0  0  0  0  0  0  0  0  0  0  0  0
   -1.6606   -2.6830    2.7960 C   0  0  0  0  0  0  0  0  0  0  0  0
   -2.7447   -3.3342    3.3470 C   0  0  0  0  0  0  0  0  0  0  0  0
   -3.6653   -3.9763    2.5165 C   0  0  0  0  0  0  0  0  0  0  0  0
   -3.4843   -3.9499    1.1323 C   0  0  0  0  0  0  0  0  0  0  0  0
   -2.3986   -3.2906    0.5943 C   0  0  0  0  0  0  0  0  0  0  0  0
   -4.8259   -4.6800    3.0997 C   0  0  0  0  0  0  0  0  0  0  0  0
   -5.6253   -5.2374    2.3747 O   0  0  0  0  0  0  0  0  0  0  0  0
   -4.9976   -4.7036    4.4357 O   0  0  0  0  0  1  0  0  0  0  0  0
    3.0480    2.4502   -1.5132 H   0  0  0  0  0  0  0  0  0  0  0  0
    3.5139    0.0878   -1.0103 H   0  0  0  0  0  0  0  0  0  0  0  0
    1.7746   -1.3429   -0.0316 H   0  0  0  0  0  0  0  0  0  0  0  0
    0.8375    3.4053   -1.0401 H   0  0  0  0  0  0  0  0  0  0  0  0
   -2.1933    1.5943   -0.3190 H   0  0  0  0  0  0  0  0  0  0  0  0
    0.3797    4.7215    4.4993 H   0  0  0  0  0  0  0  0  0  0  0  0
    2.3002    5.8103    5.5864 H   0  0  0  0  0  0  0  0  0  0  0  0
    3.6695    7.4299    4.3386 H   0  0  0  0  0  0  0  0  0  0  0  0
    3.1240    7.9662    1.9995 H   0  0  0  0  0  0  0  0  0  0  0  0
   -0.0142   -2.4292   -0.1120 H   0  0  0  0  0  0  0  0  0  0  0  0
    0.5357   -1.9709    1.5355 H   0  0  0  0  0  0  0  0  0  0  0  0
   -0.9455   -2.1894    3.4374 H   0  0  0  0  0  0  0  0  0  0  0  0
   -2.8786   -3.3511    4.4185 H   0  0  0  0  0  0  0  0  0  0  0  0
   -4.1928   -4.4443    0.4842 H   0  0  0  0  0  0  0  0  0  0  0  0
   -2.2575   -3.2691   -0.4762 H   0  0  0  0  0  0  0  0  0  0  0  0
  1  6  2  0  0  0  0
  1  2  1  0  0  0  0
  1 35  1  0  0  0  0
  2  3  2  0  0  0  0
  2 36  1  0  0  0  0
  3  4  1  0  0  0  0
  3 37  1  0  0  0  0
  4  5  2  0  0  0  0
  4 24  1  0  0  0  0
  5  6  1  0  0  0  0
  5  7  1  0  0  0  0
  6 38  1  0  0  0  0
  7  8  2  0  0  0  0
  7 39  1  0  0  0  0
  8 15  1  0  0  0  0
  8  9  1  0  0  0  0
  9 10  1  0  0  0  0
  9 11  2  0  0  0  0
 11 12  1  0  0  0  0
 12 13  2  0  0  0  0
 12 14  1  0  0  0  0
 14 15  1  0  0  0  0
 14 17  1  0  0  0  0
 15 16  2  0  0  0  0
 17 22  2  0  0  0  0
 17 18  1  0  0  0  0
 18 19  2  0  0  0  0
 18 40  1  0  0  0  0
 19 20  1  0  0  0  0
 19 41  1  0  0  0  0
 20 21  2  0  0  0  0
 20 42  1  0  0  0  0
 21 22  1  0  0  0  0
 21 43  1  0  0  0  0
 22 23  1  0  0  0  0
 24 25  1  0  0  0  0
 25 26  1  0  0  0  0
 25 44  1  0  0  0  0
 25 45  1  0  0  0  0
 26 31  2  0  0  0  0
 26 27  1  0  0  0  0
 27 28  2  0  0  0  0
 27 46  1  0  0  0  0
 28 29  1  0  0  0  0
 28 47  1  0  0  0  0
 29 30  2  0  0  0  0
 29 32  1  0  0  0  0
 30 31  1  0  0  0  0
 30 48  1  0  0  0  0
 31 49  1  0  0  0  0
 32 33  2  0  0  0  0
 32 34  1  0  0  0  0
M  CHG  1  10  -1
M  END
$$$$
ZINC16733052
 OpenBabel01252620473D

 66 69  0  0  0  0  0  0  0  0999 V2000
   -3.0614    9.5665   -3.0362 C   0  0  0  0  0  0  0  0  0  0  0  0
   -3.1700    8.0803   -2.6895 C   0  0  0  0  0  0  0  0  0  0  0  0
   -1.7845    7.4359   -2.7673 C   0  0  0  0  0  0  0  0  0  0  0  0
   -1.8932    5.9496   -2.4205 C   0  0  0  0  0  0  0  0  0  0  0  0
   -0.5992    5.3477   -2.4932 O   0  0  0  0  0  0  0  0  0  0  0  0
   -0.5194    4.0210   -2.2118 C   0  0  0  0  0  0  0  0  0  0  0  0
    0.7082    3.3743   -2.2639 C   0  0  0  0  0  0  0  0  0  0  0  0
    0.7923    2.0278   -1.9789 C   0  0  0  0  0  0  0  0  0  0  0  0
   -0.3567    1.3157   -1.6386 C   0  0  0  0  0  0  0  0  0  0  0  0
   -1.5886    1.9665   -1.5927 C   0  0  0  0  0  0  0  0  0  0  0  0
   -1.6656    3.3144   -1.8732 C   0  0  0  0  0  0  0  0  0  0  0  0
   -0.2697   -0.1329   -1.3319 C   0  0  0  0  0  0  0  0  0  0  0  0
    0.8542   -0.8650   -1.3482 N   0  0  0  0  0  0  0  0  0  0  0  0
    0.5697   -2.0966   -1.0301 C   0  0  0  0  0  0  0  0  0  0  0  0
   -0.7704   -2.2129   -0.7915 N   0  0  0  0  0  0  0  0  0  0  0  0
   -1.2775   -0.9001   -0.9964 N   0  0  0  0  0  0  0  0  0  0  0  0
   -1.2657   -3.4096   -0.4473 C   0  0  0  0  0  0  0  0  0  0  0  0
   -2.4531   -3.5594   -0.2259 O   0  0  0  0  0  0  0  0  0  0  0  0
   -0.3260   -4.5352   -0.3468 C   0  0  0  0  0  0  0  0  0  0  0  0
   -0.5634   -5.8328   -0.0208 C   0  0  0  0  0  0  0  0  0  0  0  0
    0.5074   -6.8288   -0.1464 C   0  0  0  0  0  0  0  0  0  0  0  0
    0.3245   -8.1239    0.3545 C   0  0  0  0  0  0  0  0  0  0  0  0
    1.3312   -9.0562    0.2351 C   0  0  0  0  0  0  0  0  0  0  0  0
    2.5285   -8.7160   -0.3809 C   0  0  0  0  0  0  0  0  0  0  0  0
    2.7187   -7.4287   -0.8822 C   0  0  0  0  0  0  0  0  0  0  0  0
    1.7132   -6.4888   -0.7725 C   0  0  0  0  0  0  0  0  0  0  0  0
    3.8930   -7.1006   -1.4846 O   0  0  0  0  0  0  0  0  0  0  0  0
    4.0194   -5.7644   -1.9750 C   0  0  0  0  0  0  0  0  0  0  0  0
    5.3975   -5.5842   -2.6149 C   0  0  0  0  0  0  0  0  0  0  0  0
    3.5173   -9.6403   -0.4958 O   0  0  0  0  0  0  0  0  0  0  0  0
    3.2561  -10.9395    0.0388 C   0  0  0  0  0  0  0  0  0  0  0  0
    4.4757  -11.8365   -0.1824 C   0  0  0  0  0  0  0  0  0  0  0  0
    4.1962  -13.2276    0.3900 C   0  0  0  0  0  0  0  0  0  0  0  0
    5.4157  -14.1246    0.1689 C   0  0  0  0  0  0  0  0  0  0  0  0
    1.2138   -3.7330   -0.7693 S   0  0  0  0  0  0  0  0  0  0  0  0
   -4.0484   10.0257   -2.9808 H   0  0  0  0  0  0  0  0  0  0  0  0
   -2.3924   10.0567   -2.3288 H   0  0  0  0  0  0  0  0  0  0  0  0
   -2.6659    9.6761   -4.0460 H   0  0  0  0  0  0  0  0  0  0  0  0
   -3.8389    7.5902   -3.3969 H   0  0  0  0  0  0  0  0  0  0  0  0
   -3.5655    7.9708   -1.6797 H   0  0  0  0  0  0  0  0  0  0  0  0
   -1.1156    7.9260   -2.0599 H   0  0  0  0  0  0  0  0  0  0  0  0
   -1.3890    7.5454   -3.7770 H   0  0  0  0  0  0  0  0  0  0  0  0
   -2.5621    5.4595   -3.1279 H   0  0  0  0  0  0  0  0  0  0  0  0
   -2.2887    5.8401   -1.4108 H   0  0  0  0  0  0  0  0  0  0  0  0
    1.5981    3.9265   -2.5276 H   0  0  0  0  0  0  0  0  0  0  0  0
    1.7476    1.5255   -2.0189 H   0  0  0  0  0  0  0  0  0  0  0  0
   -2.4813    1.4164   -1.3337 H   0  0  0  0  0  0  0  0  0  0  0  0
   -2.6190    3.8202   -1.8331 H   0  0  0  0  0  0  0  0  0  0  0  0
   -1.5400   -6.1313    0.3307 H   0  0  0  0  0  0  0  0  0  0  0  0
   -0.6054   -8.3913    0.8343 H   0  0  0  0  0  0  0  0  0  0  0  0
    1.1890  -10.0547    0.6213 H   0  0  0  0  0  0  0  0  0  0  0  0
    1.8578   -5.4929   -1.1647 H   0  0  0  0  0  0  0  0  0  0  0  0
    3.2458   -5.5758   -2.7193 H   0  0  0  0  0  0  0  0  0  0  0  0
    3.9077   -5.0621   -1.1490 H   0  0  0  0  0  0  0  0  0  0  0  0
    5.4939   -4.5649   -2.9890 H   0  0  0  0  0  0  0  0  0  0  0  0
    6.1711   -5.7727   -1.8705 H   0  0  0  0  0  0  0  0  0  0  0  0
    5.5092   -6.2865   -3.4409 H   0  0  0  0  0  0  0  0  0  0  0  0
    3.0532  -10.8590    1.1067 H   0  0  0  0  0  0  0  0  0  0  0  0
    2.3910  -11.3721   -0.4638 H   0  0  0  0  0  0  0  0  0  0  0  0
    4.6786  -11.9171   -1.2503 H   0  0  0  0  0  0  0  0  0  0  0  0
    5.3408  -11.4040    0.3202 H   0  0  0  0  0  0  0  0  0  0  0  0
    3.9933  -13.1471    1.4579 H   0  0  0  0  0  0  0  0  0  0  0  0
    3.3311  -13.6602   -0.1125 H   0  0  0  0  0  0  0  0  0  0  0  0
    6.2808  -13.6921    0.6715 H   0  0  0  0  0  0  0  0  0  0  0  0
    5.2166  -15.1157    0.5767 H   0  0  0  0  0  0  0  0  0  0  0  0
    5.6186  -14.2052   -0.8990 H   0  0  0  0  0  0  0  0  0  0  0  0
  1  2  1  0  0  0  0
  1 36  1  0  0  0  0
  1 37  1  0  0  0  0
  1 38  1  0  0  0  0
  2  3  1  0  0  0  0
  2 39  1  0  0  0  0
  2 40  1  0  0  0  0
  3  4  1  0  0  0  0
  3 41  1  0  0  0  0
  3 42  1  0  0  0  0
  4  5  1  0  0  0  0
  4 43  1  0  0  0  0
  4 44  1  0  0  0  0
  5  6  1  0  0  0  0
  6 11  2  0  0  0  0
  6  7  1  0  0  0  0
  7  8  2  0  0  0  0
  7 45  1  0  0  0  0
  8  9  1  0  0  0  0
  8 46  1  0  0  0  0
  9 10  2  0  0  0  0
  9 12  1  0  0  0  0
 10 11  1  0  0  0  0
 10 47  1  0  0  0  0
 11 48  1  0  0  0  0
 12 16  2  0  0  0  0
 12 13  1  0  0  0  0
 13 14  2  0  0  0  0
 14 35  1  0  0  0  0
 14 15  1  0  0  0  0
 15 16  1  0  0  0  0
 15 17  1  0  0  0  0
 17 18  2  0  0  0  0
 17 19  1  0  0  0  0
 19 20  2  0  0  0  0
 19 35  1  0  0  0  0
 20 21  1  0  0  0  0
 20 49  1  0  0  0  0
 21 26  2  0  0  0  0
 21 22  1  0  0  0  0
 22 23  2  0  0  0  0
 22 50  1  0  0  0  0
 23 24  1  0  0  0  0
 23 51  1  0  0  0  0
 24 25  2  0  0  0  0
 24 30  1  0  0  0  0
 25 26  1  0  0  0  0
 25 27  1  0  0  0  0
 26 52  1  0  0  0  0
 27 28  1  0  0  0  0
 28 29  1  0  0  0  0
 28 53  1  0  0  0  0
 28 54  1  0  0  0  0
 29 55  1  0  0  0  0
 29 56  1  0  0  0  0
 29 57  1  0  0  0  0
 30 31  1  0  0  0  0
 31 32  1  0  0  0  0
 31 58  1  0  0  0  0
 31 59  1  0  0  0  0
 32 33  1  0  0  0  0
 32 60  1  0  0  0  0
 32 61  1  0  0  0  0
 33 34  1  0  0  0  0
 33 62  1  0  0  0  0
 33 63  1  0  0  0  0
 34 64  1  0  0  0  0
 34 65  1  0  0  0  0
 34 66  1  0  0  0  0
M  END
$$$$
ZINC55631766
 OpenBabel01252620473D

 45 47  0  0  0  0  0  0  0  0999 V2000
   -0.0187    1.5258    0.0104 C   0  0  0  0  0  0  0  0  0  0  0  0
    0.0021   -0.0041    0.0020 C   0  0  0  0  0  0  0  0  0  0  0  0
    0.6932   -0.4774    1.1597 O   0  0  0  0  0  0  0  0  0  0  0  0
    0.8021   -1.8251    1.3058 C   0  0  0  0  0  0  0  0  0  0  0  0
    0.2605   -2.6717    0.3525 C   0  0  0  0  0  0  0  0  0  0  0  0
    0.3733   -4.0471    0.5036 C   0  0  0  0  0  0  0  0  0  0  0  0
    1.0285   -4.5727    1.6094 C   0  0  0  0  0  0  0  0  0  0  0  0
    1.5688   -3.7279    2.5604 C   0  0  0  0  0  0  0  0  0  0  0  0
    1.4625   -2.3549    2.4099 C   0  0  0  0  0  0  0  0  0  0  0  0
    1.9996   -1.5242    3.3446 O   0  0  0  0  0  0  0  0  0  0  0  0
    2.6634   -2.1367    4.4520 C   0  0  0  0  0  0  0  0  0  0  0  0
   -0.1736   -4.9038   -0.4581 N   0  0  0  0  0  2  0  0  0  0  0  0
   -0.0390   -6.5444   -0.2779 S   0  0  0  0  0  0  0  0  0  0  0  0
    1.3434   -6.8533   -0.3903 O   0  0  0  0  0  0  0  0  0  0  0  0
   -0.8066   -6.8916    0.8664 O   0  0  0  0  0  0  0  0  0  0  0  0
   -0.8353   -7.2877   -1.6629 C   0  0  0  0  0  0  0  0  0  0  0  0
   -0.1121   -8.0152   -2.5574 C   0  0  0  0  0  0  0  0  0  0  0  0
   -0.7216   -8.6113   -3.6592 C   0  0  0  0  0  0  0  0  0  0  0  0
   -2.0604   -8.4823   -3.8719 C   0  0  0  0  0  0  0  0  0  0  0  0
   -2.8378   -7.7393   -2.9693 C   0  0  0  0  0  0  0  0  0  0  0  0
   -2.2208   -7.1365   -1.8450 C   0  0  0  0  0  0  0  0  0  0  0  0
   -2.9575   -6.4315   -0.9803 N   0  0  0  0  0  0  0  0  0  0  0  0
   -4.2498   -6.2870   -1.1456 C   0  0  0  0  0  0  0  0  0  0  0  0
   -4.9192   -6.8580   -2.2261 C   0  0  0  0  0  0  0  0  0  0  0  0
   -4.2245   -7.5814   -3.1532 C   0  0  0  0  0  0  0  0  0  0  0  0
   -6.4063   -6.6675   -2.3780 C   0  0  0  0  0  0  0  0  0  0  0  0
    1.0039    1.9031    0.0027 H   0  0  0  0  0  0  0  0  0  0  0  0
   -0.5459    1.8868   -0.8726 H   0  0  0  0  0  0  0  0  0  0  0  0
   -0.5289    1.8773    0.9072 H   0  0  0  0  0  0  0  0  0  0  0  0
   -1.0205   -0.3814    0.0098 H   0  0  0  0  0  0  0  0  0  0  0  0
    0.5123   -0.3556   -0.8948 H   0  0  0  0  0  0  0  0  0  0  0  0
   -0.2493   -2.2623   -0.5071 H   0  0  0  0  0  0  0  0  0  0  0  0
    1.1156   -5.6428    1.7265 H   0  0  0  0  0  0  0  0  0  0  0  0
    2.0777   -4.1385    3.4199 H   0  0  0  0  0  0  0  0  0  0  0  0
    3.4927   -2.7434    4.0882 H   0  0  0  0  0  0  0  0  0  0  0  0
    3.0442   -1.3641    5.1200 H   0  0  0  0  0  0  0  0  0  0  0  0
    1.9598   -2.7698    4.9925 H   0  0  0  0  0  0  0  0  0  0  0  0
    0.9516   -8.1319   -2.4109 H   0  0  0  0  0  0  0  0  0  0  0  0
   -0.1243   -9.1831   -4.3541 H   0  0  0  0  0  0  0  0  0  0  0  0
   -2.5214   -8.9485   -4.7301 H   0  0  0  0  0  0  0  0  0  0  0  0
   -4.8107   -5.7103   -0.4251 H   0  0  0  0  0  0  0  0  0  0  0  0
   -4.7271   -8.0301   -3.9973 H   0  0  0  0  0  0  0  0  0  0  0  0
   -6.5994   -5.7708   -2.9668 H   0  0  0  0  0  0  0  0  0  0  0  0
   -6.8338   -7.5333   -2.8838 H   0  0  0  0  0  0  0  0  0  0  0  0
   -6.8614   -6.5606   -1.3934 H   0  0  0  0  0  0  0  0  0  0  0  0
  1  2  1  0  0  0  0
  1 27  1  0  0  0  0
  1 28  1  0  0  0  0
  1 29  1  0  0  0  0
  2  3  1  0  0  0  0
  2 30  1  0  0  0  0
  2 31  1  0  0  0  0
  3  4  1  0  0  0  0
  4  9  2  0  0  0  0
  4  5  1  0  0  0  0
  5  6  2  0  0  0  0
  5 32  1  0  0  0  0
  6  7  1  0  0  0  0
  6 12  1  0  0  0  0
  7  8  2  0  0  0  0
  7 33  1  0  0  0  0
  8  9  1  0  0  0  0
  8 34  1  0  0  0  0
  9 10  1  0  0  0  0
 10 11  1  0  0  0  0
 11 35  1  0  0  0  0
 11 36  1  0  0  0  0
 11 37  1  0  0  0  0
 12 13  1  0  0  0  0
 13 14  2  0  0  0  0
 13 15  2  0  0  0  0
 13 16  1  0  0  0  0
 16 21  2  0  0  0  0
 16 17  1  0  0  0  0
 17 18  2  0  0  0  0
 17 38  1  0  0  0  0
 18 19  1  0  0  0  0
 18 39  1  0  0  0  0
 19 20  2  0  0  0  0
 19 40  1  0  0  0  0
 20 25  1  0  0  0  0
 20 21  1  0  0  0  0
 21 22  1  0  0  0  0
 22 23  2  0  0  0  0
 23 24  1  0  0  0  0
 23 41  1  0  0  0  0
 24 25  2  0  0  0  0
 24 26  1  0  0  0  0
 25 42  1  0  0  0  0
 26 43  1  0  0  0  0
 26 44  1  0  0  0  0
 26 45  1  0  0  0  0
M  END
$$$$
ZINC13204615
 OpenBabel01252620473D

 64 66  0  0  1  0  0  0  0  0999 V2000
   -2.3333    1.5342    0.5026 C   0  0  0  0  0  0  0  0  0  0  0  0
   -2.2402    0.0535    0.8764 C   0  0  0  0  0  0  0  0  0  0  0  0
   -1.4622   -0.6611   -0.1444 N   0  3  0  0  0  0  0  0  0  0  0  0
   -0.0775   -0.1706   -0.1372 C   0  0  0  0  0  0  0  0  0  0  0  0
    0.6920   -0.7984   -1.3011 C   0  0  0  0  0  0  0  0  0  0  0  0
   -1.4734   -2.1003    0.1499 C   0  0  0  0  0  0  0  0  0  0  0  0
   -2.9000   -2.6369    0.0170 C   0  0  0  0  0  0  0  0  0  0  0  0
   -2.8928   -4.0916    0.1908 N   0  0  0  0  0  0  0  0  0  0  0  0
   -4.0700   -4.7997    0.1127 C   0  0  0  0  0  0  0  0  0  0  0  0
   -5.2579   -4.2788   -0.1187 N   0  0  0  0  0  0  0  0  0  0  0  0
   -6.1825   -5.2403   -0.1300 C   0  0  0  0  0  0  0  0  0  0  0  0
   -5.5352   -6.4476    0.1101 C   0  0  0  0  0  0  0  0  0  0  0  0
   -4.1877   -6.1462    0.2564 N   0  0  0  0  0  0  0  0  0  0  0  0
   -3.1031   -7.0955    0.5185 C   0  0  0  0  0  0  0  0  0  0  0  0
   -2.9214   -7.2579    2.0290 C   0  0  1  0  0  0  0  0  0  0  0  0
   -3.8706   -7.5471    2.4801 H   0  0  0  0  0  0  0  0  0  0  0  0
   -1.8755   -8.3404    2.3034 C   0  0  0  0  0  0  0  0  0  0  0  0
   -1.7899   -8.5741    3.7105 O   0  0  0  0  0  0  0  0  0  0  0  0
   -0.9006   -9.5137    4.1268 C   0  0  0  0  0  0  0  0  0  0  0  0
   -0.1223  -10.1925    3.2005 C   0  0  0  0  0  0  0  0  0  0  0  0
    0.7813  -11.1468    3.6263 C   0  0  0  0  0  0  0  0  0  0  0  0
    0.9103  -11.4256    4.9744 C   0  0  0  0  0  0  0  0  0  0  0  0
    0.1354  -10.7508    5.8996 C   0  0  0  0  0  0  0  0  0  0  0  0
   -0.7655   -9.7916    5.4793 C   0  0  0  0  0  0  0  0  0  0  0  0
    1.8791  -12.4485    5.4278 N   0  0  0  0  0  4  0  0  0  0  0  0
    2.5569  -13.0395    4.6197 O   0  0  0  0  0  0  0  0  0  0  0  0
    1.9928  -12.6931    6.6063 O   0  5  0  0  0  0  0  0  0  0  0  0
   -2.4841   -6.0194    2.5920 O   0  0  0  0  0  0  0  0  0  0  0  0
   -6.2884   -7.6342    0.1507 C   0  0  0  0  0  0  0  0  0  0  0  0
   -5.7422   -8.7034    0.3600 O   0  0  0  0  0  0  0  0  0  0  0  0
   -7.6221   -7.5767   -0.0439 N   0  0  0  0  0  0  0  0  0  0  0  0
   -8.1446   -8.3935   -0.0162 H   0  0  0  0  0  0  0  0  0  0  0  0
   -8.2380   -6.4045   -0.2752 C   0  0  0  0  0  0  0  0  0  0  0  0
   -9.4420   -6.3906   -0.4458 O   0  0  0  0  0  0  0  0  0  0  0  0
   -7.5547   -5.2454   -0.3227 N   0  0  0  0  0  0  0  0  0  0  0  0
   -8.2627   -3.9883   -0.5770 C   0  0  0  0  0  0  0  0  0  0  0  0
   -2.9106    2.0645    1.2601 H   0  0  0  0  0  0  0  0  0  0  0  0
   -1.3309    1.9586    0.4467 H   0  0  0  0  0  0  0  0  0  0  0  0
   -2.8249    1.6345   -0.4651 H   0  0  0  0  0  0  0  0  0  0  0  0
   -1.7486   -0.0468    1.8440 H   0  0  0  0  0  0  0  0  0  0  0  0
   -3.2426   -0.3709    0.9323 H   0  0  0  0  0  0  0  0  0  0  0  0
   -0.0758    0.9142   -0.2435 H   0  0  0  0  0  0  0  0  0  0  0  0
    0.4000   -0.4443    0.8037 H   0  0  0  0  0  0  0  0  0  0  0  0
    0.2472   -0.4806   -2.2441 H   0  0  0  0  0  0  0  0  0  0  0  0
    1.7329   -0.4771   -1.2638 H   0  0  0  0  0  0  0  0  0  0  0  0
    0.6441   -1.8846   -1.2245 H   0  0  0  0  0  0  0  0  0  0  0  0
   -0.8227   -2.6201   -0.5534 H   0  0  0  0  0  0  0  0  0  0  0  0
   -1.1160   -2.2661    1.1662 H   0  0  0  0  0  0  0  0  0  0  0  0
   -3.5316   -2.1829    0.7807 H   0  0  0  0  0  0  0  0  0  0  0  0
   -3.2903   -2.3909   -0.9705 H   0  0  0  0  0  0  0  0  0  0  0  0
   -2.0581   -4.5555    0.3609 H   0  0  0  0  0  0  0  0  0  0  0  0
   -3.3503   -8.0607    0.0764 H   0  0  0  0  0  0  0  0  0  0  0  0
   -2.1784   -6.7209    0.0795 H   0  0  0  0  0  0  0  0  0  0  0  0
   -2.1656   -9.2621    1.7989 H   0  0  0  0  0  0  0  0  0  0  0  0
   -0.9057   -8.0115    1.9300 H   0  0  0  0  0  0  0  0  0  0  0  0
   -0.2230   -9.9754    2.1474 H   0  0  0  0  0  0  0  0  0  0  0  0
    1.3871  -11.6758    2.9055 H   0  0  0  0  0  0  0  0  0  0  0  0
    0.2378  -10.9706    6.9520 H   0  0  0  0  0  0  0  0  0  0  0  0
   -1.3673   -9.2616    6.2027 H   0  0  0  0  0  0  0  0  0  0  0  0
   -1.6434   -5.7006    2.2361 H   0  0  0  0  0  0  0  0  0  0  0  0
   -8.2959   -3.8007   -1.6502 H   0  0  0  0  0  0  0  0  0  0  0  0
   -9.2788   -4.0586   -0.1888 H   0  0  0  0  0  0  0  0  0  0  0  0
   -7.7401   -3.1703   -0.0811 H   0  0  0  0  0  0  0  0  0  0  0  0
   -1.8712   -0.5004   -1.0527 H   0  0  0  0  0  0  0  0  0  0  0  0
  1  2  1  0  0  0  0
  1 37  1  0  0  0  0
  1 38  1  0  0  0  0
  1 39  1  0  0  0  0
  2  3  1  0  0  0  0
  2 40  1  0  0  0  0
  2 41  1  0  0  0  0
  3  4  1  0  0  0  0
  3  6  1  0  0  0  0
  3 64  1  0  0  0  0
  4  5  1  0  0  0  0
  4 42  1  0  0  0  0
  4 43  1  0  0  0  0
  5 44  1  0  0  0  0
  5 45  1  0  0  0  0
  5 46  1  0  0  0  0
  6  7  1  0  0  0  0
  6 47  1  0  0  0  0
  6 48  1  0  0  0  0
  7  8  1  0  0  0  0
  7 49  1  0  0  0  0
  7 50  1  0  0  0  0
  8  9  1  0  0  0  0
  8 51  1  0  0  0  0
  9 13  1  0  0  0  0
  9 10  2  0  0  0  0
 10 11  1  0  0  0  0
 11 35  1  0  0  0  0
 11 12  2  0  0  0  0
 12 13  1  0  0  0  0
 12 29  1  0  0  0  0
 13 14  1  0  0  0  0
 14 15  1  0  0  0  0
 14 52  1  0  0  0  0
 14 53  1  0  0  0  0
 15 16  1  1  0  0  0
 15 17  1  0  0  0  0
 15 28  1  0  0  0  0
 17 18  1  0  0  0  0
 17 54  1  0  0  0  0
 17 55  1  0  0  0  0
 18 19  1  0  0  0  0
 19 24  2  0  0  0  0
 19 20  1  0  0  0  0
 20 21  2  0  0  0  0
 20 56  1  0  0  0  0
 21 22  1  0  0  0  0
 21 57  1  0  0  0  0
 22 23  2  0  0  0  0
 22 25  1  0  0  0  0
 23 24  1  0  0  0  0
 23 58  1  0  0  0  0
 24 59  1  0  0  0  0
 25 26  2  0  0  0  0
 25 27  1  0  0  0  0
 28 60  1  0  0  0  0
 29 30  2  0  0  0  0
 29 31  1  0  0  0  0
 31 32  1  0  0  0  0
 31 33  1  0  0  0  0
 33 34  2  0  0  0  0
 33 35  1  0  0  0  0
 35 36  1  0  0  0  0
 36 61  1  0  0  0  0
 36 62  1  0  0  0  0
 36 63  1  0  0  0  0
M  CHG  2   3   1  27  -1
M  END
$$$$
ZINC39898459
 OpenBabel01252620473D

 54 57  0  0  1  0  0  0  0  0999 V2000
   -0.0187    1.5258    0.0104 C   0  0  0  0  0  0  0  0  0  0  0  0
    0.0021   -0.0041    0.0020 C   0  0  0  0  0  0  0  0  0  0  0  0
   -1.4333   -0.5336    0.0129 C   0  0  0  0  0  0  0  0  0  0  0  0
   -1.4126   -2.0635    0.0045 C   0  0  0  0  0  0  0  0  0  0  0  0
   -2.7870   -2.5706    0.0149 N   0  0  0  0  0  0  0  0  0  0  0  0
   -3.5773   -2.8665    1.2155 C   0  0  1  0  0  0  0  0  0  0  0  0
   -3.7041   -1.9632    1.8121 H   0  0  0  0  0  0  0  0  0  0  0  0
   -4.9142   -3.3580    0.7317 C   0  0  0  0  0  0  0  0  0  0  0  0
   -6.1527   -3.8157    1.0504 C   0  0  0  0  0  0  0  0  0  0  0  0
   -6.7993   -4.0497   -0.1294 N   0  0  0  0  0  0  0  0  0  0  0  0
   -6.0278   -3.7617   -1.1166 N   0  0  0  0  0  0  0  0  0  0  0  0
   -7.7064   -4.3838   -0.2106 H   0  0  0  0  0  0  0  0  0  0  0  0
   -4.8603   -3.3329   -0.6804 C   0  0  0  0  0  0  0  0  0  0  0  0
   -3.5299   -2.8345   -1.0735 C   0  0  0  0  0  0  0  0  0  0  0  0
   -3.1563   -2.6859   -2.2208 O   0  0  0  0  0  0  0  0  0  0  0  0
   -6.6955   -4.0212    2.4113 C   0  0  0  0  0  0  0  0  0  0  0  0
   -7.0093   -5.3059    2.8537 C   0  0  0  0  0  0  0  0  0  0  0  0
   -7.5156   -5.4917    4.1248 C   0  0  0  0  0  0  0  0  0  0  0  0
   -7.7134   -4.4063    4.9620 C   0  0  0  0  0  0  0  0  0  0  0  0
   -7.4059   -3.1290    4.5330 C   0  0  0  0  0  0  0  0  0  0  0  0
   -6.8910   -2.9281    3.2627 C   0  0  0  0  0  0  0  0  0  0  0  0
   -6.5829   -1.6733    2.8426 O   0  5  0  0  0  0  0  0  0  0  0  0
   -7.9062   -7.0912    4.6751 Cl  0  0  0  0  0  0  0  0  0  0  0  0
   -2.8968   -3.9344    2.0326 C   0  0  0  0  0  0  0  0  0  0  0  0
   -2.2883   -5.0036    1.4014 C   0  0  0  0  0  0  0  0  0  0  0  0
   -1.6643   -5.9840    2.1482 C   0  0  0  0  0  0  0  0  0  0  0  0
   -1.6481   -5.8950    3.5326 C   0  0  0  0  0  0  0  0  0  0  0  0
   -2.2591   -4.8210    4.1634 C   0  0  0  0  0  0  0  0  0  0  0  0
   -2.8772   -3.8405    3.4119 C   0  0  0  0  0  0  0  0  0  0  0  0
   -1.0353   -6.8585    4.2695 O   0  0  0  0  0  0  0  0  0  0  0  0
   -1.0579   -6.7017    5.6897 C   0  0  0  0  0  0  0  0  0  0  0  0
   -0.3353   -7.8566    6.3341 C   0  0  0  0  0  0  0  0  0  0  0  0
    0.5173   -7.6366    7.3040 C   0  0  0  0  0  0  0  0  0  0  0  0
    1.0039    1.9031    0.0027 H   0  0  0  0  0  0  0  0  0  0  0  0
   -0.5459    1.8868   -0.8726 H   0  0  0  0  0  0  0  0  0  0  0  0
   -0.5289    1.8773    0.9072 H   0  0  0  0  0  0  0  0  0  0  0  0
    0.5123   -0.3556   -0.8948 H   0  0  0  0  0  0  0  0  0  0  0  0
    0.5293   -0.3651    0.8851 H   0  0  0  0  0  0  0  0  0  0  0  0
   -1.9435   -0.1821    0.9097 H   0  0  0  0  0  0  0  0  0  0  0  0
   -1.9605   -0.1726   -0.8702 H   0  0  0  0  0  0  0  0  0  0  0  0
   -0.9024   -2.4150   -0.8923 H   0  0  0  0  0  0  0  0  0  0  0  0
   -0.8854   -2.4246    0.8875 H   0  0  0  0  0  0  0  0  0  0  0  0
   -6.8569   -6.1543    2.2030 H   0  0  0  0  0  0  0  0  0  0  0  0
   -8.1101   -4.5587    5.9549 H   0  0  0  0  0  0  0  0  0  0  0  0
   -7.5632   -2.2868    5.1905 H   0  0  0  0  0  0  0  0  0  0  0  0
   -2.3011   -5.0724    0.3237 H   0  0  0  0  0  0  0  0  0  0  0  0
   -1.1897   -6.8193    1.6548 H   0  0  0  0  0  0  0  0  0  0  0  0
   -2.2479   -4.7495    5.2410 H   0  0  0  0  0  0  0  0  0  0  0  0
   -3.3492   -3.0019    3.9024 H   0  0  0  0  0  0  0  0  0  0  0  0
   -0.5646   -5.7681    5.9600 H   0  0  0  0  0  0  0  0  0  0  0  0
   -2.0910   -6.6805    6.0365 H   0  0  0  0  0  0  0  0  0  0  0  0
   -0.5203   -8.8656    5.9962 H   0  0  0  0  0  0  0  0  0  0  0  0
    1.0351   -8.4642    7.7659 H   0  0  0  0  0  0  0  0  0  0  0  0
    0.7023   -6.6277    7.6419 H   0  0  0  0  0  0  0  0  0  0  0  0
  1  2  1  0  0  0  0
  1 34  1  0  0  0  0
  1 35  1  0  0  0  0
  1 36  1  0  0  0  0
  2  3  1  0  0  0  0
  2 37  1  0  0  0  0
  2 38  1  0  0  0  0
  3  4  1  0  0  0  0
  3 39  1  0  0  0  0
  3 40  1  0  0  0  0
  4  5  1  0  0  0  0
  4 41  1  0  0  0  0
  4 42  1  0  0  0  0
  5 14  1  0  0  0  0
  5  6  1  0  0  0  0
  6  7  1  1  0  0  0
  6  8  1  0  0  0  0
  6 24  1  0  0  0  0
  8 13  1  0  0  0  0
  8  9  2  0  0  0  0
  9 16  1  0  0  0  0
  9 10  1  0  0  0  0
 10 12  1  0  0  0  0
 10 11  1  0  0  0  0
 11 13  2  0  0  0  0
 13 14  1  0  0  0  0
 14 15  2  0  0  0  0
 16 21  2  0  0  0  0
 16 17  1  0  0  0  0
 17 18  2  0  0  0  0
 17 43  1  0  0  0  0
 18 19  1  0  0  0  0
 18 23  1  0  0  0  0
 19 20  2  0  0  0  0
 19 44  1  0  0  0  0
 20 21  1  0  0  0  0
 20 45  1  0  0  0  0
 21 22  1  0  0  0  0
 24 29  2  0  0  0  0
 24 25  1  0  0  0  0
 25 26  2  0  0  0  0
 25 46  1  0  0  0  0
 26 27  1  0  0  0  0
 26 47  1  0  0  0  0
 27 28  2  0  0  0  0
 27 30  1  0  0  0  0
 28 29  1  0  0  0  0
 28 48  1  0  0  0  0
 29 49  1  0  0  0  0
 30 31  1  0  0  0  0
 31 32  1  0  0  0  0
 31 50  1  0  0  0  0
 31 51  1  0  0  0  0
 32 33  2  0  0  0  0
 32 52  1  0  0  0  0
 33 53  1  0  0  0  0
 33 54  1  0  0  0  0
M  CHG  1  22  -1
M  END
$$$$
ZINC55639179
 OpenBabel01252620473D

 38 39  0  0  0  0  0  0  0  0999 V2000
   -0.0187    1.5258    0.0104 C   0  0  0  0  0  0  0  0  0  0  0  0
    0.0021   -0.0041    0.0020 C   0  0  0  0  0  0  0  0  0  0  0  0
    0.8511   -0.5891   -1.4904 S   0  0  0  0  0  0  0  0  0  0  0  0
    0.0816   -0.2798   -2.6443 O   0  0  0  0  0  0  0  0  0  0  0  0
    2.2316   -0.2574   -1.4300 O   0  0  0  0  0  0  0  0  0  0  0  0
    0.8085   -2.2411   -1.3844 N   0  0  0  0  0  2  0  0  0  0  0  0
    1.3860   -3.0224   -2.3924 C   0  0  0  0  0  0  0  0  0  0  0  0
    1.9995   -2.4120   -3.4783 C   0  0  0  0  0  0  0  0  0  0  0  0
    2.5688   -3.1826   -4.4728 C   0  0  0  0  0  0  0  0  0  0  0  0
    2.5281   -4.5680   -4.3867 C   0  0  0  0  0  0  0  0  0  0  0  0
    1.9149   -5.1784   -3.3006 C   0  0  0  0  0  0  0  0  0  0  0  0
    1.3503   -4.4077   -2.3035 C   0  0  0  0  0  0  0  0  0  0  0  0
    3.1047   -5.3492   -5.3952 N   0  0  0  0  0  2  0  0  0  0  0  0
    3.0562   -7.0013   -5.2925 S   0  0  0  0  0  0  0  0  0  0  0  0
    3.8561   -7.3625   -4.1749 O   0  0  0  0  0  0  0  0  0  0  0  0
    1.6898   -7.3752   -5.4039 O   0  0  0  0  0  0  0  0  0  0  0  0
    3.8700   -7.6362   -6.7205 C   0  0  0  0  0  0  0  0  0  0  0  0
    3.1490   -7.8860   -7.8732 C   0  0  0  0  0  0  0  0  0  0  0  0
    3.7875   -8.3841   -8.9935 C   0  0  0  0  0  0  0  0  0  0  0  0
    5.1471   -8.6320   -8.9613 C   0  0  0  0  0  0  0  0  0  0  0  0
    5.8682   -8.3813   -7.8090 C   0  0  0  0  0  0  0  0  0  0  0  0
    5.2305   -7.8792   -6.6900 C   0  0  0  0  0  0  0  0  0  0  0  0
    5.8306   -9.1662  -10.1606 N   0  0  0  0  0  4  0  0  0  0  0  0
    5.1998   -9.3858  -11.1684 O   0  0  0  0  0  0  0  0  0  0  0  0
    7.0196   -9.3830  -10.1325 O   0  5  0  0  0  0  0  0  0  0  0  0
    1.0039    1.9031    0.0027 H   0  0  0  0  0  0  0  0  0  0  0  0
   -0.5459    1.8868   -0.8726 H   0  0  0  0  0  0  0  0  0  0  0  0
   -0.5289    1.8773    0.9072 H   0  0  0  0  0  0  0  0  0  0  0  0
    0.5293   -0.3651    0.8851 H   0  0  0  0  0  0  0  0  0  0  0  0
   -1.0205   -0.3814    0.0098 H   0  0  0  0  0  0  0  0  0  0  0  0
    2.0312   -1.3346   -3.5453 H   0  0  0  0  0  0  0  0  0  0  0  0
    3.0453   -2.7079   -5.3177 H   0  0  0  0  0  0  0  0  0  0  0  0
    1.8832   -6.2558   -3.2336 H   0  0  0  0  0  0  0  0  0  0  0  0
    0.8770   -4.8824   -1.4567 H   0  0  0  0  0  0  0  0  0  0  0  0
    2.0868   -7.6924   -7.8983 H   0  0  0  0  0  0  0  0  0  0  0  0
    3.2241   -8.5800   -9.8938 H   0  0  0  0  0  0  0  0  0  0  0  0
    6.9304   -8.5753   -7.7837 H   0  0  0  0  0  0  0  0  0  0  0  0
    5.7946   -7.6798   -5.7908 H   0  0  0  0  0  0  0  0  0  0  0  0
  1  2  1  0  0  0  0
  1 26  1  0  0  0  0
  1 27  1  0  0  0  0
  1 28  1  0  0  0  0
  2  3  1  0  0  0  0
  2 29  1  0  0  0  0
  2 30  1  0  0  0  0
  3  4  2  0  0  0  0
  3  5  2  0  0  0  0
  3  6  1  0  0  0  0
  6  7  1  0  0  0  0
  7 12  2  0  0  0  0
  7  8  1  0  0  0  0
  8  9  2  0  0  0  0
  8 31  1  0  0  0  0
  9 10  1  0  0  0  0
  9 32  1  0  0  0  0
 10 11  2  0  0  0  0
 10 13  1  0  0  0  0
 11 12  1  0  0  0  0
 11 33  1  0  0  0  0
 12 34  1  0  0  0  0
 13 14  1  0  0  0  0
 14 15  2  0  0  0  0
 14 16  2  0  0  0  0
 14 17  1  0  0  0  0
 17 22  2  0  0  0  0
 17 18  1  0  0  0  0
 18 19  2  0  0  0  0
 18 35  1  0  0  0  0
 19 20  1  0  0  0  0
 19 36  1  0  0  0  0
 20 21  2  0  0  0  0
 20 23  1  0  0  0  0
 21 22  1  0  0  0  0
 21 37  1  0  0  0  0
 22 38  1  0  0  0  0
 23 24  2  0  0  0  0
 23 25  1  0  0  0  0
M  CHG  1  25  -1
M  END
$$$$
ZINC41263117
 OpenBabel01252620473D

 36 39  0  0  0  0  0  0  0  0999 V2000
   -0.0169    1.3927    0.0097 C   0  0  0  0  0  0  0  0  0  0  0  0
    1.1512    2.1000    0.0023 C   0  0  0  0  0  0  0  0  0  0  0  0
    2.3747    1.4275   -0.0129 C   0  0  0  0  0  0  0  0  0  0  0  0
    2.4012    0.0237   -0.0206 C   0  0  0  0  0  0  0  0  0  0  0  0
    1.2147   -0.6875   -0.0138 C   0  0  0  0  0  0  0  0  0  0  0  0
    0.0021   -0.0041    0.0020 C   0  0  0  0  0  0  0  0  0  0  0  0
   -1.2735   -0.7611    0.0106 C   0  0  0  0  0  0  0  0  0  0  0  0
   -2.4859   -0.1312   -0.0808 C   0  0  0  0  0  0  0  0  0  0  0  0
   -3.5906   -1.5325   -0.0183 S   0  0  0  0  0  0  0  0  0  0  0  0
   -2.4287   -2.7423    0.1139 C   0  0  0  0  0  0  0  0  0  0  0  0
   -1.2995   -2.0831    0.1015 N   0  0  0  0  0  0  0  0  0  0  0  0
   -2.6391   -4.2310    0.2160 C   0  0  0  0  0  0  0  0  0  0  0  0
   -2.7588   -4.6118    1.6255 N   0  0  0  0  0  0  0  0  0  0  0  0
   -2.9529   -5.9027    1.9607 C   0  0  0  0  0  0  0  0  0  0  0  0
   -3.0287   -6.7508    1.0937 O   0  0  0  0  0  0  0  0  0  0  0  0
   -3.0740   -6.2878    3.3861 C   0  0  0  0  0  0  0  0  0  0  0  0
   -2.9956   -5.3272    4.3990 C   0  0  0  0  0  0  0  0  0  0  0  0
   -3.1142   -5.7303    5.7151 C   0  0  0  0  0  0  0  0  0  0  0  0
   -3.2982   -6.9994    6.0203 N   0  0  0  0  0  0  0  0  0  0  0  0
   -3.3778   -7.9365    5.0967 C   0  0  0  0  0  0  0  0  0  0  0  0
   -3.2757   -7.6212    3.7555 C   0  0  0  0  0  0  0  0  0  0  0  0
    3.7061   -0.3327   -0.0350 O   0  0  0  0  0  0  0  0  0  0  0  0
    4.4469    0.7887   -0.0361 C   0  0  0  0  0  0  0  0  0  0  0  0
    5.7984    0.8233   -0.0492 O   0  5  0  0  0  0  0  0  0  0  0  0
    3.6722    1.8401   -0.0231 N   0  0  0  0  0  0  0  0  0  0  0  0
   -0.9612    1.9165    0.0260 H   0  0  0  0  0  0  0  0  0  0  0  0
    1.1287    3.1797    0.0080 H   0  0  0  0  0  0  0  0  0  0  0  0
    1.2291   -1.7674   -0.0200 H   0  0  0  0  0  0  0  0  0  0  0  0
   -2.7115    0.9215   -0.1664 H   0  0  0  0  0  0  0  0  0  0  0  0
   -3.5513   -4.5062   -0.3135 H   0  0  0  0  0  0  0  0  0  0  0  0
   -1.7900   -4.7494   -0.2296 H   0  0  0  0  0  0  0  0  0  0  0  0
   -2.6983   -3.9349    2.3176 H   0  0  0  0  0  0  0  0  0  0  0  0
   -2.8442   -4.2858    4.1563 H   0  0  0  0  0  0  0  0  0  0  0  0
   -3.0549   -4.9958    6.5046 H   0  0  0  0  0  0  0  0  0  0  0  0
   -3.5289   -8.9642    5.3923 H   0  0  0  0  0  0  0  0  0  0  0  0
   -3.3465   -8.3935    3.0039 H   0  0  0  0  0  0  0  0  0  0  0  0
  1  6  2  0  0  0  0
  1  2  1  0  0  0  0
  1 26  1  0  0  0  0
  2  3  2  0  0  0  0
  2 27  1  0  0  0  0
  3 25  1  0  0  0  0
  3  4  1  0  0  0  0
  4  5  2  0  0  0  0
  4 22  1  0  0  0  0
  5  6  1  0  0  0  0
  5 28  1  0  0  0  0
  6  7  1  0  0  0  0
  7 11  1  0  0  0  0
  7  8  2  0  0  0  0
  8  9  1  0  0  0  0
  8 29  1  0  0  0  0
  9 10  1  0  0  0  0
 10 11  2  0  0  0  0
 10 12  1  0  0  0  0
 12 13  1  0  0  0  0
 12 30  1  0  0  0  0
 12 31  1  0  0  0  0
 13 14  1  0  0  0  0
 13 32  1  0  0  0  0
 14 15  2  0  0  0  0
 14 16  1  0  0  0  0
 16 21  2  0  0  0  0
 16 17  1  0  0  0  0
 17 18  2  0  0  0  0
 17 33  1  0  0  0  0
 18 19  1  0  0  0  0
 18 34  1  0  0  0  0
 19 20  2  0  0  0  0
 20 21  1  0  0  0  0
 20 35  1  0  0  0  0
 21 36  1  0  0  0  0
 22 23  1  0  0  0  0
 23 24  1  0  0  0  0
 23 25  2  0  0  0  0
M  CHG  1  24  -1
M  END
$$$$
ZINC49102460
 OpenBabel01252620473D

 44 44  0  0  0  0  0  0  0  0999 V2000
   -0.0173    1.4248    0.0099 C   0  0  0  0  0  0  0  0  0  0  0  0
    0.0021   -0.0041    0.0020 O   0  0  0  0  0  0  0  0  0  0  0  0
   -1.2953   -0.6030    0.0112 C   0  0  0  0  0  0  0  0  0  0  0  0
   -1.1538   -2.1264    0.0017 C   0  0  0  0  0  0  0  0  0  0  0  0
   -2.5429   -2.7677    0.0115 C   0  0  0  0  0  0  0  0  0  0  0  0
   -2.4075   -4.2264    0.0023 N   0  0  0  0  0  0  0  0  0  0  0  0
   -3.5167   -5.0120    0.0087 C   0  0  0  0  0  0  0  0  0  0  0  0
   -4.7392   -4.4499    0.0234 O   0  5  0  0  0  0  0  0  0  0  0  0
   -3.3874   -6.4042    0.0000 C   0  0  0  0  0  0  0  0  0  0  0  0
   -2.0865   -7.0024   -0.0156 C   0  0  0  0  0  0  0  0  0  0  0  0
   -1.0544   -7.4770   -0.0280 N   0  0  0  0  0  0  0  0  0  0  0  0
   -4.5371   -7.2185    0.0066 C   0  0  0  0  0  0  0  0  0  0  0  0
   -5.6410   -6.7110    0.0199 O   0  0  0  0  0  0  0  0  0  0  0  0
   -4.3978   -8.7191   -0.0028 C   0  0  0  0  0  0  0  0  0  0  0  0
   -5.7869   -9.3603    0.0070 C   0  0  0  0  0  0  0  0  0  0  0  0
   -5.6454  -10.8837   -0.0025 C   0  0  0  0  0  0  0  0  0  0  0  0
   -6.9428  -11.4827    0.0067 O   0  0  0  0  0  0  0  0  0  0  0  0
   -6.9955  -12.8411   -0.0001 C   0  0  0  0  0  0  0  0  0  0  0  0
   -5.8228  -13.5816   -0.0096 C   0  0  0  0  0  0  0  0  0  0  0  0
   -5.8782  -14.9619   -0.0165 C   0  0  0  0  0  0  0  0  0  0  0  0
   -7.1027  -15.6066   -0.0140 C   0  0  0  0  0  0  0  0  0  0  0  0
   -8.2741  -14.8706   -0.0046 C   0  0  0  0  0  0  0  0  0  0  0  0
   -8.2231  -13.4890    0.0081 C   0  0  0  0  0  0  0  0  0  0  0  0
   -9.6929  -12.5655    0.0272 Cl  0  0  0  0  0  0  0  0  0  0  0  0
   -7.1690  -17.3413   -0.0233 Cl  0  0  0  0  0  0  0  0  0  0  0  0
    1.0053    1.8021    0.0021 H   0  0  0  0  0  0  0  0  0  0  0  0
   -0.5445    1.7859   -0.8732 H   0  0  0  0  0  0  0  0  0  0  0  0
   -0.5275    1.7763    0.9067 H   0  0  0  0  0  0  0  0  0  0  0  0
   -1.8320   -0.2936    0.9080 H   0  0  0  0  0  0  0  0  0  0  0  0
   -1.8490   -0.2840   -0.8718 H   0  0  0  0  0  0  0  0  0  0  0  0
   -0.6171   -2.4359   -0.8952 H   0  0  0  0  0  0  0  0  0  0  0  0
   -0.6001   -2.4454    0.8847 H   0  0  0  0  0  0  0  0  0  0  0  0
   -3.0796   -2.4582    0.9083 H   0  0  0  0  0  0  0  0  0  0  0  0
   -3.0966   -2.4487   -0.8716 H   0  0  0  0  0  0  0  0  0  0  0  0
   -1.5262   -4.6316   -0.0082 H   0  0  0  0  0  0  0  0  0  0  0  0
   -3.8611   -9.0285   -0.8996 H   0  0  0  0  0  0  0  0  0  0  0  0
   -3.8441   -9.0381    0.8803 H   0  0  0  0  0  0  0  0  0  0  0  0
   -6.3236   -9.0509    0.9039 H   0  0  0  0  0  0  0  0  0  0  0  0
   -6.3406   -9.0413   -0.8760 H   0  0  0  0  0  0  0  0  0  0  0  0
   -5.1087  -11.1932   -0.8993 H   0  0  0  0  0  0  0  0  0  0  0  0
   -5.0917  -11.2027    0.8805 H   0  0  0  0  0  0  0  0  0  0  0  0
   -4.8667  -13.0792   -0.0118 H   0  0  0  0  0  0  0  0  0  0  0  0
   -4.9650  -15.5385   -0.0242 H   0  0  0  0  0  0  0  0  0  0  0  0
   -9.2288  -15.3755   -0.0031 H   0  0  0  0  0  0  0  0  0  0  0  0
  1  2  1  0  0  0  0
  1 26  1  0  0  0  0
  1 27  1  0  0  0  0
  1 28  1  0  0  0  0
  2  3  1  0  0  0  0
  3  4  1  0  0  0  0
  3 29  1  0  0  0  0
  3 30  1  0  0  0  0
  4  5  1  0  0  0  0
  4 31  1  0  0  0  0
  4 32  1  0  0  0  0
  5  6  1  0  0  0  0
  5 33  1  0  0  0  0
  5 34  1  0  0  0  0
  6  7  1  0  0  0  0
  6 35  1  0  0  0  0
  7  8  1  0  0  0  0
  7  9  2  0  0  0  0
  9 10  1  0  0  0  0
  9 12  1  0  0  0  0
 10 11  3  0  0  0  0
 12 13  2  0  0  0  0
 12 14  1  0  0  0  0
 14 15  1  0  0  0  0
 14 36  1  0  0  0  0
 14 37  1  0  0  0  0
 15 16  1  0  0  0  0
 15 38  1  0  0  0  0
 15 39  1  0  0  0  0
 16 17  1  0  0  0  0
 16 40  1  0  0  0  0
 16 41  1  0  0  0  0
 17 18  1  0  0  0  0
 18 23  2  0  0  0  0
 18 19  1  0  0  0  0
 19 20  2  0  0  0  0
 19 42  1  0  0  0  0
 20 21  1  0  0  0  0
 20 43  1  0  0  0  0
 21 22  2  0  0  0  0
 21 25  1  0  0  0  0
 22 23  1  0  0  0  0
 22 44  1  0  0  0  0
 23 24  1  0  0  0  0
M  CHG  1   8  -1
M  END
$$$$
ZINC13093052
 OpenBabel01252620473D

 46 48  0  0  0  0  0  0  0  0999 V2000
   -0.2568    1.2918   -0.0069 C   0  0  0  0  0  0  0  0  0  0  0  0
    0.8068    1.9022   -0.6519 C   0  0  0  0  0  0  0  0  0  0  0  0
    2.0499    1.3026   -0.6702 C   0  0  0  0  0  0  0  0  0  0  0  0
    2.2421    0.0805   -0.0399 C   0  0  0  0  0  0  0  0  0  0  0  0
    1.1677   -0.5399    0.6144 C   0  0  0  0  0  0  0  0  0  0  0  0
   -0.0846    0.0789    0.6240 C   0  0  0  0  0  0  0  0  0  0  0  0
    1.3587   -1.8387    1.2876 C   0  0  0  0  0  0  0  0  0  0  0  0
    2.4693   -2.3284    1.3597 O   0  0  0  0  0  0  0  0  0  0  0  0
    0.3023   -2.4823    1.8225 N   0  0  0  0  0  0  0  0  0  0  0  0
    0.4921   -3.7720    2.4909 C   0  0  0  0  0  0  0  0  0  0  0  0
   -0.5213   -4.8786    2.1918 C   0  0  0  0  0  0  0  0  0  0  0  0
   -0.5345   -4.1761    3.5510 C   0  0  0  0  0  0  0  0  0  0  0  0
    3.4956   -0.5266   -0.0575 N   0  0  0  0  0  0  0  0  0  0  0  0
    4.6055    0.2232   -0.2075 C   0  0  0  0  0  0  0  0  0  0  0  0
    4.5221    1.4329   -0.2253 O   0  0  0  0  0  0  0  0  0  0  0  0
    5.9500   -0.4417   -0.3532 C   0  0  0  0  0  0  0  0  0  0  0  0
    7.2347    0.8258   -0.5360 S   0  0  0  0  0  0  0  0  0  0  0  0
    8.7264   -0.0988   -0.6933 C   0  0  0  0  0  0  0  0  0  0  0  0
    9.8807    0.5389   -0.8461 N   0  0  0  0  0  0  0  0  0  0  0  0
   11.0023   -0.1635   -0.9642 C   0  0  0  0  0  0  0  0  0  0  0  0
   12.1950    0.4604   -1.1209 O   0  5  0  0  0  0  0  0  0  0  0  0
   10.9278   -1.5564   -0.9234 C   0  0  0  0  0  0  0  0  0  0  0  0
    9.7513   -2.1345   -0.7693 N   0  0  0  0  0  0  0  0  0  0  0  0
    8.6838   -1.4251   -0.6523 N   0  0  0  0  0  0  0  0  0  0  0  0
   12.1759   -2.3908   -1.0541 C   0  0  0  0  0  0  0  0  0  0  0  0
   12.7702   -2.6404    0.3335 C   0  0  0  0  0  0  0  0  0  0  0  0
   14.0183   -3.4747    0.2027 C   0  0  0  0  0  0  0  0  0  0  0  0
   14.3974   -3.8363   -0.8982 O   0  0  0  0  0  0  0  0  0  0  0  0
   14.6490   -3.7882    1.1979 O   0  0  0  0  0  1  0  0  0  0  0  0
   -1.2245    1.7712    0.0053 H   0  0  0  0  0  0  0  0  0  0  0  0
    0.6622    2.8528   -1.1437 H   0  0  0  0  0  0  0  0  0  0  0  0
    2.8738    1.7843   -1.1757 H   0  0  0  0  0  0  0  0  0  0  0  0
   -0.9169   -0.3927    1.1254 H   0  0  0  0  0  0  0  0  0  0  0  0
   -0.5836   -2.0916    1.7649 H   0  0  0  0  0  0  0  0  0  0  0  0
    1.5281   -4.0687    2.6547 H   0  0  0  0  0  0  0  0  0  0  0  0
   -1.3292   -4.6470    1.4977 H   0  0  0  0  0  0  0  0  0  0  0  0
   -0.1521   -5.9036    2.1586 H   0  0  0  0  0  0  0  0  0  0  0  0
   -0.1740   -4.7390    4.4119 H   0  0  0  0  0  0  0  0  0  0  0  0
   -1.3511   -3.4824    3.7510 H   0  0  0  0  0  0  0  0  0  0  0  0
    3.5698   -1.4890    0.0382 H   0  0  0  0  0  0  0  0  0  0  0  0
    6.1560   -1.0428    0.5325 H   0  0  0  0  0  0  0  0  0  0  0  0
    5.9445   -1.0833   -1.2344 H   0  0  0  0  0  0  0  0  0  0  0  0
   11.9282   -3.3445   -1.5202 H   0  0  0  0  0  0  0  0  0  0  0  0
   12.9029   -1.8628   -1.6712 H   0  0  0  0  0  0  0  0  0  0  0  0
   13.0179   -1.6867    0.7995 H   0  0  0  0  0  0  0  0  0  0  0  0
   12.0432   -3.1684    0.9505 H   0  0  0  0  0  0  0  0  0  0  0  0
  1  6  2  0  0  0  0
  1  2  1  0  0  0  0
  1 30  1  0  0  0  0
  2  3  2  0  0  0  0
  2 31  1  0  0  0  0
  3  4  1  0  0  0  0
  3 32  1  0  0  0  0
  4  5  2  0  0  0  0
  4 13  1  0  0  0  0
  5  6  1  0  0  0  0
  5  7  1  0  0  0  0
  6 33  1  0  0  0  0
  7  8  2  0  0  0  0
  7  9  1  0  0  0  0
  9 10  1  0  0  0  0
  9 34  1  0  0  0  0
 10 12  1  0  0  0  0
 10 11  1  0  0  0  0
 10 35  1  0  0  0  0
 11 12  1  0  0  0  0
 11 36  1  0  0  0  0
 11 37  1  0  0  0  0
 12 38  1  0  0  0  0
 12 39  1  0  0  0  0
 13 14  1  0  0  0  0
 13 40  1  0  0  0  0
 14 15  2  0  0  0  0
 14 16  1  0  0  0  0
 16 17  1  0  0  0  0
 16 41  1  0  0  0  0
 16 42  1  0  0  0  0
 17 18  1  0  0  0  0
 18 19  2  0  0  0  0
 18 24  1  0  0  0  0
 19 20  1  0  0  0  0
 20 21  1  0  0  0  0
 20 22  2  0  0  0  0
 22 23  1  0  0  0  0
 22 25  1  0  0  0  0
 23 24  2  0  0  0  0
 25 26  1  0  0  0  0
 25 43  1  0  0  0  0
 25 44  1  0  0  0  0
 26 27  1  0  0  0  0
 26 45  1  0  0  0  0
 26 46  1  0  0  0  0
 27 28  2  0  0  0  0
 27 29  1  0  0  0  0
M  CHG  1  21  -1
M  END
$$$$
ZINC62843363
 OpenBabel01252620473D

 46 47  0  0  0  0  0  0  0  0999 V2000
    2.1233    1.8754   -0.5516 C   0  0  0  0  0  0  0  0  0  0  0  0
    1.5613    0.4827   -0.2590 C   0  0  0  0  0  0  0  0  0  0  0  0
    2.3207   -0.1274    0.7865 O   0  0  0  0  0  0  0  0  0  0  0  0
    1.8757   -1.4388    1.1388 C   0  0  0  0  0  0  0  0  0  0  0  0
    2.6101   -2.4735    0.2831 C   0  0  0  0  0  0  0  0  0  0  0  0
    2.1056   -3.8754    0.6391 C   0  0  0  0  0  0  0  0  0  0  0  0
    2.2516   -4.0770    2.0871 N   0  0  0  0  0  0  0  0  0  0  0  0
    1.6604   -3.0899    3.0009 C   0  0  0  0  0  0  0  0  0  0  0  0
    2.1699   -1.6967    2.6184 C   0  0  0  0  0  0  0  0  0  0  0  0
    2.9148   -5.1472    2.5681 C   0  0  0  0  0  0  0  0  0  0  0  0
    3.5636   -5.8486    1.8162 O   0  0  0  0  0  0  0  0  0  0  0  0
    2.8588   -5.4398    3.8825 N   0  0  0  0  0  0  0  0  0  0  0  0
    1.7339   -4.9753    4.7056 C   0  0  0  0  0  0  0  0  0  0  0  0
    1.1215   -6.1792    5.4283 C   0  0  0  0  0  0  0  0  0  0  0  0
    2.2148   -6.9087    6.2123 C   0  0  0  0  0  0  0  0  0  0  0  0
    3.2846   -7.4193    5.2444 C   0  0  0  0  0  0  0  0  0  0  0  0
    3.9184   -6.2346    4.5183 C   0  0  0  0  0  0  0  0  0  0  0  0
    2.8527   -5.9447    7.2147 C   0  0  0  0  0  0  0  0  0  0  0  0
    1.6097   -8.0739    6.9520 C   0  0  0  0  0  0  0  0  0  0  0  0
    2.2783   -9.0692    7.1730 O   0  0  0  0  0  0  0  0  0  0  0  0
    0.4516   -8.0213    7.3295 O   0  0  0  0  0  1  0  0  0  0  0  0
    3.1647    1.7892   -0.8616 H   0  0  0  0  0  0  0  0  0  0  0  0
    1.5441    2.3407   -1.3491 H   0  0  0  0  0  0  0  0  0  0  0  0
    2.0615    2.4884    0.3476 H   0  0  0  0  0  0  0  0  0  0  0  0
    0.5199    0.5689    0.0510 H   0  0  0  0  0  0  0  0  0  0  0  0
    1.6232   -0.1303   -1.1582 H   0  0  0  0  0  0  0  0  0  0  0  0
    0.8029   -1.5178    0.9628 H   0  0  0  0  0  0  0  0  0  0  0  0
    2.4189   -2.2750   -0.7715 H   0  0  0  0  0  0  0  0  0  0  0  0
    3.6809   -2.4120    0.4771 H   0  0  0  0  0  0  0  0  0  0  0  0
    1.0556   -3.9674    0.3614 H   0  0  0  0  0  0  0  0  0  0  0  0
    2.6936   -4.6219    0.1052 H   0  0  0  0  0  0  0  0  0  0  0  0
    0.5741   -3.1178    2.9158 H   0  0  0  0  0  0  0  0  0  0  0  0
    1.9547   -3.3181    4.0253 H   0  0  0  0  0  0  0  0  0  0  0  0
    3.2448   -1.6426    2.7904 H   0  0  0  0  0  0  0  0  0  0  0  0
    1.6654   -0.9454    3.2260 H   0  0  0  0  0  0  0  0  0  0  0  0
    2.0916   -4.2522    5.4386 H   0  0  0  0  0  0  0  0  0  0  0  0
    0.9818   -4.5106    4.0678 H   0  0  0  0  0  0  0  0  0  0  0  0
    0.3482   -5.8361    6.1157 H   0  0  0  0  0  0  0  0  0  0  0  0
    0.6835   -6.8584    4.6969 H   0  0  0  0  0  0  0  0  0  0  0  0
    4.0510   -7.9589    5.8008 H   0  0  0  0  0  0  0  0  0  0  0  0
    2.8263   -8.0868    4.5147 H   0  0  0  0  0  0  0  0  0  0  0  0
    4.6073   -6.6006    3.7570 H   0  0  0  0  0  0  0  0  0  0  0  0
    4.4582   -5.6165    5.2357 H   0  0  0  0  0  0  0  0  0  0  0  0
    2.0911   -5.5819    7.9050 H   0  0  0  0  0  0  0  0  0  0  0  0
    3.6314   -6.4641    7.7732 H   0  0  0  0  0  0  0  0  0  0  0  0
    3.2900   -5.1015    6.6801 H   0  0  0  0  0  0  0  0  0  0  0  0
  1  2  1  0  0  0  0
  1 22  1  0  0  0  0
  1 23  1  0  0  0  0
  1 24  1  0  0  0  0
  2  3  1  0  0  0  0
  2 25  1  0  0  0  0
  2 26  1  0  0  0  0
  3  4  1  0  0  0  0
  4  9  1  0  0  0  0
  4  5  1  0  0  0  0
  4 27  1  0  0  0  0
  5  6  1  0  0  0  0
  5 28  1  0  0  0  0
  5 29  1  0  0  0  0
  6  7  1  0  0  0  0
  6 30  1  0  0  0  0
  6 31  1  0  0  0  0
  7  8  1  0  0  0  0
  7 10  1  0  0  0  0
  8  9  1  0  0  0  0
  8 32  1  0  0  0  0
  8 33  1  0  0  0  0
  9 34  1  0  0  0  0
  9 35  1  0  0  0  0
 10 11  2  0  0  0  0
 10 12  1  0  0  0  0
 12 17  1  0  0  0  0
 12 13  1  0  0  0  0
 13 14  1  0  0  0  0
 13 36  1  0  0  0  0
 13 37  1  0  0  0  0
 14 15  1  0  0  0  0
 14 38  1  0  0  0  0
 14 39  1  0  0  0  0
 15 16  1  0  0  0  0
 15 18  1  0  0  0  0
 15 19  1  0  0  0  0
 16 17  1  0  0  0  0
 16 40  1  0  0  0  0
 16 41  1  0  0  0  0
 17 42  1  0  0  0  0
 17 43  1  0  0  0  0
 18 44  1  0  0  0  0
 18 45  1  0  0  0  0
 18 46  1  0  0  0  0
 19 20  2  0  0  0  0
 19 21  1  0  0  0  0
M  END
$$$$
ZINC26547391
 OpenBabel01252620473D

 32 33  0  0  0  0  0  0  0  0999 V2000
   -1.5278    5.9221   -8.1121 C   0  0  0  0  0  0  0  0  0  0  0  0
   -1.7082    6.3128   -6.7494 O   0  0  0  0  0  0  0  0  0  0  0  0
   -1.8289    5.2160   -5.8414 C   0  0  0  0  0  0  0  0  0  0  0  0
   -2.0143    5.7412   -4.4411 C   0  0  0  0  0  0  0  0  0  0  0  0
   -3.2871    5.9823   -3.9567 C   0  0  0  0  0  0  0  0  0  0  0  0
   -3.4616    6.4646   -2.6727 C   0  0  0  0  0  0  0  0  0  0  0  0
   -2.3645    6.7076   -1.8695 C   0  0  0  0  0  0  0  0  0  0  0  0
   -1.0849    6.4666   -2.3528 C   0  0  0  0  0  0  0  0  0  0  0  0
   -0.9129    5.9865   -3.6452 C   0  0  0  0  0  0  0  0  0  0  0  0
    0.0268    6.7117   -1.5435 N   0  0  0  0  0  2  0  0  0  0  0  0
    0.0272    6.2132    0.0357 S   0  0  0  0  0  0  0  0  0  0  0  0
   -1.2005    6.6524    0.6006 O   0  0  0  0  0  0  0  0  0  0  0  0
    1.2890    6.5797    0.5769 O   0  0  0  0  0  0  0  0  0  0  0  0
   -0.0243    4.4520    0.0262 C   0  0  0  0  0  0  0  0  0  0  0  0
   -1.2406    3.7852    0.0342 C   0  0  0  0  0  0  0  0  0  0  0  0
   -1.2336    2.3996    0.0210 C   0  0  0  0  0  0  0  0  0  0  0  0
   -0.0215    1.7317    0.0116 C   0  0  0  0  0  0  0  0  0  0  0  0
    1.1164    2.3997    0.0043 N   0  0  0  0  0  0  0  0  0  0  0  0
    1.1462    3.7184    0.0111 C   0  0  0  0  0  0  0  0  0  0  0  0
    0.0021   -0.0041    0.0020 Cl  0  0  0  0  0  0  0  0  0  0  0  0
   -1.4439    6.8194   -8.7428 H   0  0  0  0  0  0  0  0  0  0  0  0
   -2.3907    5.3234   -8.4392 H   0  0  0  0  0  0  0  0  0  0  0  0
   -0.6099    5.3227   -8.2032 H   0  0  0  0  0  0  0  0  0  0  0  0
   -2.6981    4.6025   -6.1210 H   0  0  0  0  0  0  0  0  0  0  0  0
   -0.9173    4.6019   -5.8850 H   0  0  0  0  0  0  0  0  0  0  0  0
   -4.1466    5.7939   -4.5829 H   0  0  0  0  0  0  0  0  0  0  0  0
   -4.4568    6.6519   -2.2974 H   0  0  0  0  0  0  0  0  0  0  0  0
   -2.5014    7.0850   -0.8669 H   0  0  0  0  0  0  0  0  0  0  0  0
    0.0809    5.8022   -4.0256 H   0  0  0  0  0  0  0  0  0  0  0  0
   -2.1712    4.3332    0.0457 H   0  0  0  0  0  0  0  0  0  0  0  0
   -2.1620    1.8480    0.0224 H   0  0  0  0  0  0  0  0  0  0  0  0
    2.0970    4.2307    0.0051 H   0  0  0  0  0  0  0  0  0  0  0  0
  1  2  1  0  0  0  0
  1 21  1  0  0  0  0
  1 22  1  0  0  0  0
  1 23  1  0  0  0  0
  2  3  1  0  0  0  0
  3  4  1  0  0  0  0
  3 24  1  0  0  0  0
  3 25  1  0  0  0  0
  4  9  2  0  0  0  0
  4  5  1  0  0  0  0
  5  6  2  0  0  0  0
  5 26  1  0  0  0  0
  6  7  1  0  0  0  0
  6 27  1  0  0  0  0
  7  8  2  0  0  0  0
  7 28  1  0  0  0  0
  8  9  1  0  0  0  0
  8 10  1  0  0  0  0
  9 29  1  0  0  0  0
 10 11  1  0  0  0  0
 11 12  2  0  0  0  0
 11 13  2  0  0  0  0
 11 14  1  0  0  0  0
 14 19  2  0  0  0  0
 14 15  1  0  0  0  0
 15 16  2  0  0  0  0
 15 30  1  0  0  0  0
 16 17  1  0  0  0  0
 16 31  1  0  0  0  0
 17 18  2  0  0  0  0
 17 20  1  0  0  0  0
 18 19  1  0  0  0  0
 19 32  1  0  0  0  0
M  END
$$$$
ZINC03872560
 OpenBabel01252620473D

 33 35  0  0  1  0  0  0  0  0999 V2000
    2.8019   -2.1695    0.1794 C   0  0  0  0  0  0  0  0  0  0  0  0
    2.7230   -0.6890    0.5572 C   0  0  2  0  0  0  0  0  0  0  0  0
    2.3096   -0.5917    1.5611 H   0  0  0  0  0  0  0  0  0  0  0  0
    1.8220    0.0441   -0.4386 C   0  0  2  0  0  0  0  0  0  0  0  0
    2.1105   -0.1154   -1.4776 H   0  0  0  0  0  0  0  0  0  0  0  0
    1.5668    1.5002   -0.0850 C   0  0  2  0  0  0  0  0  0  0  0  0
    2.0238    1.8631    0.8356 H   0  0  0  0  0  0  0  0  0  0  0  0
    0.1312    1.1852   -0.0476 N   0  0  0  0  0  0  0  0  0  0  0  0
    0.3562   -0.1334   -0.1792 C   0  0  0  0  0  0  0  0  0  0  0  0
   -0.3626   -1.1084   -0.1129 O   0  0  0  0  0  0  0  0  0  0  0  0
   -0.6566    1.8556   -0.9771 C   0  0  0  0  0  0  0  0  0  0  0  0
   -0.1068    2.6844   -1.8943 C   0  0  0  0  0  0  0  0  0  0  0  0
    1.6374    2.6414   -1.5179 S   0  0  0  0  0  0  0  0  0  0  0  0
   -0.8042    3.4626   -2.9801 C   0  0  2  0  0  0  0  0  0  0  0  0
   -1.8847    3.4190   -2.8430 H   0  0  0  0  0  0  0  0  0  0  0  0
   -0.4160    2.9123   -4.3704 C   0  0  0  0  0  0  0  0  0  0  0  0
   -0.3254    4.1717   -5.2608 C   0  0  0  0  0  0  0  0  0  0  0  0
   -0.6696    5.3340   -4.3032 C   0  0  0  0  0  0  0  0  0  0  0  0
   -0.3509    4.8338   -2.9863 O   0  0  0  0  0  0  0  0  0  0  0  0
   -2.0588    1.6675   -0.9633 C   0  0  0  0  0  0  0  0  0  0  0  0
   -2.5768    1.0163   -0.0748 O   0  0  0  0  0  0  0  0  0  0  0  0
    4.0327   -0.1184    0.5240 O   0  0  0  0  0  0  0  0  0  0  0  0
    3.2152   -2.2668   -0.8245 H   0  0  0  0  0  0  0  0  0  0  0  0
    3.4437   -2.6918    0.8889 H   0  0  0  0  0  0  0  0  0  0  0  0
    1.8028   -2.6047    0.2047 H   0  0  0  0  0  0  0  0  0  0  0  0
    0.5484    2.4063   -4.3251 H   0  0  0  0  0  0  0  0  0  0  0  0
   -1.1848    2.2344   -4.7411 H   0  0  0  0  0  0  0  0  0  0  0  0
    0.6838    4.2884   -5.6558 H   0  0  0  0  0  0  0  0  0  0  0  0
   -1.0505    4.1183   -6.0728 H   0  0  0  0  0  0  0  0  0  0  0  0
   -0.0616    6.2087   -4.5343 H   0  0  0  0  0  0  0  0  0  0  0  0
   -1.7291    5.5805   -4.3712 H   0  0  0  0  0  0  0  0  0  0  0  0
    4.4623   -0.1698   -0.3408 H   0  0  0  0  0  0  0  0  0  0  0  0
   -2.8223    2.2104   -1.9354 O   0  0  0  0  0  1  0  0  0  0  0  0
  1  2  1  0  0  0  0
  1 23  1  0  0  0  0
  1 24  1  0  0  0  0
  1 25  1  0  0  0  0
  2  3  1  1  0  0  0
  2  4  1  0  0  0  0
  2 22  1  0  0  0  0
  4  5  1  6  0  0  0
  4  9  1  0  0  0  0
  4  6  1  0  0  0  0
  6  7  1  1  0  0  0
  6 13  1  0  0  0  0
  6  8  1  0  0  0  0
  8  9  1  0  0  0  0
  8 11  1  0  0  0  0
  9 10  2  0  0  0  0
 11 12  2  0  0  0  0
 11 20  1  0  0  0  0
 12 13  1  0  0  0  0
 12 14  1  0  0  0  0
 14 15  1  1  0  0  0
 14 19  1  0  0  0  0
 14 16  1  0  0  0  0
 16 17  1  0  0  0  0
 16 26  1  0  0  0  0
 16 27  1  0  0  0  0
 17 18  1  0  0  0  0
 17 28  1  0  0  0  0
 17 29  1  0  0  0  0
 18 19  1  0  0  0  0
 18 30  1  0  0  0  0
 18 31  1  0  0  0  0
 20 21  2  0  0  0  0
 20 33  1  0  0  0  0
 22 32  1  0  0  0  0
M  END
$$$$
ZINC20494350
 OpenBabel01252620473D

 37 40  0  0  0  0  0  0  0  0999 V2000
    0.1640  -10.1040    3.0149 C   0  0  0  0  0  0  0  0  0  0  0  0
    0.1439   -9.4462    1.7915 C   0  0  0  0  0  0  0  0  0  0  0  0
    0.1255   -8.0566    1.7976 C   0  0  0  0  0  0  0  0  0  0  0  0
    0.1284   -7.3729    3.0277 C   0  0  0  0  0  0  0  0  0  0  0  0
    0.1484   -8.0451    4.1633 N   0  0  0  0  0  0  0  0  0  0  0  0
    0.1660   -9.3640    4.1848 C   0  0  0  0  0  0  0  0  0  0  0  0
    0.1113   -5.9298    2.6836 C   0  0  0  0  0  0  0  0  0  0  0  0
    0.1124   -5.0119    3.4779 O   0  0  0  0  0  0  0  0  0  0  0  0
    0.0913   -5.8090    1.3441 N   0  0  0  0  0  0  0  0  0  0  0  0
    0.1016   -7.0159    0.7498 C   0  0  0  0  0  0  0  0  0  0  0  0
    0.0932   -7.2162   -0.4479 O   0  0  0  0  0  0  0  0  0  0  0  0
    0.0690   -4.5910    0.6602 C   0  0  0  0  0  0  0  0  0  0  0  0
    0.0558   -4.5781   -0.7289 C   0  0  0  0  0  0  0  0  0  0  0  0
    0.0332   -3.3790   -1.4175 C   0  0  0  0  0  0  0  0  0  0  0  0
    0.0240   -2.1810   -0.7171 C   0  0  0  0  0  0  0  0  0  0  0  0
    0.0379   -2.1905    0.6936 C   0  0  0  0  0  0  0  0  0  0  0  0
    0.0605   -3.3942    1.3748 C   0  0  0  0  0  0  0  0  0  0  0  0
    0.0230   -0.7709    1.1071 C   0  0  0  0  0  0  0  0  0  0  0  0
    0.0283   -0.3655    2.2519 O   0  0  0  0  0  0  0  0  0  0  0  0
    0.0021   -0.0041    0.0020 N   0  0  0  0  0  0  0  0  0  0  0  0
   -0.0040   -0.7590   -1.1112 C   0  0  0  0  0  0  0  0  0  0  0  0
   -0.0262   -0.3400   -2.2512 O   0  0  0  0  0  0  0  0  0  0  0  0
   -0.0178    1.4608    0.0101 C   0  0  0  0  0  0  0  0  0  0  0  0
    1.4176    1.9904   -0.0008 C   0  0  0  0  0  0  0  0  0  0  0  0
    1.3972    3.4972    0.0075 C   0  0  0  0  0  0  0  0  0  0  0  0
    0.3427    4.0870    0.0207 O   0  0  0  0  0  0  0  0  0  0  0  0
    2.5504    4.1841    0.0002 O   0  0  0  0  0  1  0  0  0  0  0  0
    0.1787  -11.1833    3.0530 H   0  0  0  0  0  0  0  0  0  0  0  0
    0.1419   -9.9983    0.8633 H   0  0  0  0  0  0  0  0  0  0  0  0
    0.1821   -9.8771    5.1350 H   0  0  0  0  0  0  0  0  0  0  0  0
    0.0629   -5.5102   -1.2744 H   0  0  0  0  0  0  0  0  0  0  0  0
    0.0230   -3.3749   -2.4975 H   0  0  0  0  0  0  0  0  0  0  0  0
    0.0715   -3.4067    2.4547 H   0  0  0  0  0  0  0  0  0  0  0  0
   -0.5499    1.8252   -0.8810 H   0  0  0  0  0  0  0  0  0  0  0  0
   -0.5327    1.8155    0.9151 H   0  0  0  0  0  0  0  0  0  0  0  0
    1.9496    1.6260    0.8904 H   0  0  0  0  0  0  0  0  0  0  0  0
    1.9325    1.6357   -0.9058 H   0  0  0  0  0  0  0  0  0  0  0  0
  1  6  2  0  0  0  0
  1  2  1  0  0  0  0
  1 28  1  0  0  0  0
  2  3  2  0  0  0  0
  2 29  1  0  0  0  0
  3 10  1  0  0  0  0
  3  4  1  0  0  0  0
  4  5  2  0  0  0  0
  4  7  1  0  0  0  0
  5  6  1  0  0  0  0
  6 30  1  0  0  0  0
  7  8  2  0  0  0  0
  7  9  1  0  0  0  0
  9 10  1  0  0  0  0
  9 12  1  0  0  0  0
 10 11  2  0  0  0  0
 12 17  2  0  0  0  0
 12 13  1  0  0  0  0
 13 14  2  0  0  0  0
 13 31  1  0  0  0  0
 14 15  1  0  0  0  0
 14 32  1  0  0  0  0
 15 21  1  0  0  0  0
 15 16  2  0  0  0  0
 16 17  1  0  0  0  0
 16 18  1  0  0  0  0
 17 33  1  0  0  0  0
 18 19  2  0  0  0  0
 18 20  1  0  0  0  0
 20 21  1  0  0  0  0
 20 23  1  0  0  0  0
 21 22  2  0  0  0  0
 23 24  1  0  0  0  0
 23 34  1  0  0  0  0
 23 35  1  0  0  0  0
 24 25  1  0  0  0  0
 24 36  1  0  0  0  0
 24 37  1  0  0  0  0
 25 26  2  0  0  0  0
 25 27  1  0  0  0  0
M  END
$$$$
ZINC25668427
 OpenBabel01252620473D

 37 38  0  0  1  0  0  0  0  0999 V2000
   -3.8593    5.8436    0.0523 C   0  0  0  0  0  0  0  0  0  0  0  0
   -2.5719    5.2234    0.0429 O   0  0  0  0  0  0  0  0  0  0  0  0
   -2.5415    3.8638    0.0350 C   0  0  0  0  0  0  0  0  0  0  0  0
   -3.7254    3.1445    0.0363 C   0  0  0  0  0  0  0  0  0  0  0  0
   -3.7026    1.7601    0.0291 C   0  0  0  0  0  0  0  0  0  0  0  0
   -2.5018    1.0836    0.0198 C   0  0  0  0  0  0  0  0  0  0  0  0
   -1.2989    1.7954    0.0180 C   0  0  0  0  0  0  0  0  0  0  0  0
   -1.3219    3.1955    0.0315 C   0  0  0  0  0  0  0  0  0  0  0  0
   -0.1592    3.8971    0.0359 O   0  5  0  0  0  0  0  0  0  0  0  0
   -0.0126    1.0758    0.0080 C   0  0  0  0  0  0  0  0  0  0  0  0
    1.0994    1.7381    0.0009 N   0  0  0  0  0  4  0  0  0  0  0  0
    2.3778    1.0230   -0.0152 C   0  0  2  0  0  0  0  0  0  0  0  0
    2.1550   -0.0541   -0.0327 H   0  0  0  0  0  0  0  0  0  0  0  0
    3.1869    1.3968    1.2284 C   0  0  0  0  0  0  0  0  0  0  0  0
    2.4708    0.9055    2.4601 C   0  0  0  0  0  0  0  0  0  0  0  0
    2.9884    0.1024    3.4090 C   0  0  0  0  0  0  0  0  0  0  0  0
    2.0064   -0.0913    4.3427 N   0  0  0  0  0  0  0  0  0  0  0  0
    2.2031   -0.7164    5.2262 H   0  0  0  0  0  0  0  0  0  0  0  0
    0.9192    0.5932    3.9269 C   0  0  0  0  0  0  0  0  0  0  0  0
    1.2043    1.1869    2.8003 N   0  0  0  0  0  0  0  0  0  0  0  0
    3.1513    1.4044   -1.2510 C   0  0  0  0  0  0  0  0  0  0  0  0
    2.6827    2.1927   -2.0377 O   0  0  0  0  0  0  0  0  0  0  0  0
    4.3608    0.8683   -1.4779 O   0  0  0  0  0  1  0  0  0  0  0  0
   -4.9744    1.0027    0.0310 N   0  0  0  0  0  4  0  0  0  0  0  0
   -4.9579   -0.2152    0.0244 O   0  0  0  0  0  0  0  0  0  0  0  0
   -6.0373    1.5973    0.0393 O   0  5  0  0  0  0  0  0  0  0  0  0
   -3.7395    6.9370    0.0580 H   0  0  0  0  0  0  0  0  0  0  0  0
   -4.4106    5.5304    0.9512 H   0  0  0  0  0  0  0  0  0  0  0  0
   -4.4188    5.5407   -0.8451 H   0  0  0  0  0  0  0  0  0  0  0  0
   -4.6710    3.6663    0.0432 H   0  0  0  0  0  0  0  0  0  0  0  0
   -2.4903    0.0037    0.0136 H   0  0  0  0  0  0  0  0  0  0  0  0
    0.0023   -0.0241    0.0066 H   0  0  0  0  0  0  0  0  0  0  0  0
    4.1817    0.9308    1.1723 H   0  0  0  0  0  0  0  0  0  0  0  0
    3.2965    2.4901    1.2796 H   0  0  0  0  0  0  0  0  0  0  0  0
    3.9871   -0.3083    3.4303 H   0  0  0  0  0  0  0  0  0  0  0  0
   -0.0291    0.6416    4.4415 H   0  0  0  0  0  0  0  0  0  0  0  0
    1.0845    2.8380    0.0070 H   0  0  0  0  0  0  0  0  0  0  0  0
  1  2  1  0  0  0  0
  1 27  1  0  0  0  0
  1 28  1  0  0  0  0
  1 29  1  0  0  0  0
  2  3  1  0  0  0  0
  3  8  2  0  0  0  0
  3  4  1  0  0  0  0
  4  5  2  0  0  0  0
  4 30  1  0  0  0  0
  5  6  1  0  0  0  0
  5 24  1  0  0  0  0
  6  7  2  0  0  0  0
  6 31  1  0  0  0  0
  7  8  1  0  0  0  0
  7 10  1  0  0  0  0
  8  9  1  0  0  0  0
 10 11  2  0  0  0  0
 10 32  1  0  0  0  0
 11 12  1  0  0  0  0
 11 37  1  0  0  0  0
 12 13  1  6  0  0  0
 12 14  1  0  0  0  0
 12 21  1  0  0  0  0
 14 15  1  0  0  0  0
 14 33  1  0  0  0  0
 14 34  1  0  0  0  0
 15 20  1  0  0  0  0
 15 16  2  0  0  0  0
 16 17  1  0  0  0  0
 16 35  1  0  0  0  0
 17 18  1  0  0  0  0
 17 19  1  0  0  0  0
 19 20  2  0  0  0  0
 19 36  1  0  0  0  0
 21 22  2  0  0  0  0
 21 23  1  0  0  0  0
 24 25  2  0  0  0  0
 24 26  1  0  0  0  0
M  CHG  2   9  -1  26  -1
M  END
$$$$
ZINC40093332
 OpenBabel01252620473D

 65 67  0  0  1  0  0  0  0  0999 V2000
    1.1090    1.7745   -0.8423 C   0  0  0  0  0  0  0  0  0  0  0  0
    1.4795    0.4335   -1.4214 C   0  0  0  0  0  0  0  0  0  0  0  0
    0.5539   -0.2807   -2.1486 C   0  0  0  0  0  0  0  0  0  0  0  0
    0.8986   -1.5247   -2.6854 C   0  0  0  0  0  0  0  0  0  0  0  0
    2.1832   -2.0383   -2.4810 C   0  0  0  0  0  0  0  0  0  0  0  0
    3.1025   -1.3179   -1.7528 C   0  0  0  0  0  0  0  0  0  0  0  0
    2.7572   -0.0783   -1.2254 C   0  0  0  0  0  0  0  0  0  0  0  0
    3.6683    0.6313   -0.5127 O   0  0  0  0  0  0  0  0  0  0  0  0
    4.9183   -0.0057   -0.2412 C   0  0  0  0  0  0  0  0  0  0  0  0
    5.8677    0.2102   -1.4214 C   0  0  0  0  0  0  0  0  0  0  0  0
    5.5328    0.5956    1.0244 C   0  0  0  0  0  0  0  0  0  0  0  0
   -0.0907   -2.2941   -3.4653 C   0  0  0  0  0  0  0  0  0  0  0  0
   -1.1721   -1.8026   -3.7301 O   0  0  0  0  0  0  0  0  0  0  0  0
    0.2296   -3.6506   -3.9210 C   0  0  0  0  0  0  0  0  0  0  0  0
    0.3620   -4.0608   -5.2037 C   0  0  0  0  0  0  0  0  0  0  0  0
    0.6878   -5.5023   -5.2214 C   0  0  0  0  0  0  0  0  0  0  0  0
    0.8683   -6.1641   -6.2242 O   0  0  0  0  0  0  0  0  0  0  0  0
    0.7549   -5.9733   -3.9629 N   0  0  0  0  0  0  0  0  0  0  0  0
    0.4816   -4.8582   -3.0487 C   0  0  2  0  0  0  0  0  0  0  0  0
    1.3414   -4.6809   -2.4026 H   0  0  0  0  0  0  0  0  0  0  0  0
   -0.7385   -5.1608   -2.2176 C   0  0  0  0  0  0  0  0  0  0  0  0
   -1.8191   -5.8084   -2.7865 C   0  0  0  0  0  0  0  0  0  0  0  0
   -2.9383   -6.0860   -2.0241 C   0  0  0  0  0  0  0  0  0  0  0  0
   -2.9766   -5.7164   -0.6926 C   0  0  0  0  0  0  0  0  0  0  0  0
   -1.8956   -5.0696   -0.1234 C   0  0  0  0  0  0  0  0  0  0  0  0
   -0.7747   -4.7958   -0.8848 C   0  0  0  0  0  0  0  0  0  0  0  0
   -4.1971   -6.0181    0.1383 C   0  0  0  0  0  0  0  0  0  0  0  0
   -4.4335   -7.5295    0.1672 C   0  0  0  0  0  0  0  0  0  0  0  0
   -3.9819   -5.5081    1.5646 C   0  0  0  0  0  0  0  0  0  0  0  0
   -5.4151   -5.3230   -0.4735 C   0  0  0  0  0  0  0  0  0  0  0  0
    1.0535   -7.3538   -3.5738 C   0  0  0  0  0  0  0  0  0  0  0  0
    2.5640   -7.5177   -3.3944 C   0  0  0  0  0  0  0  0  0  0  0  0
    3.0037   -6.7126   -2.2987 O   0  0  0  0  0  0  0  0  0  0  0  0
    0.2190   -3.2760   -6.2966 O   0  5  0  0  0  0  0  0  0  0  0  0
    1.3363    2.5578   -1.5654 H   0  0  0  0  0  0  0  0  0  0  0  0
    0.0435    1.7895   -0.6132 H   0  0  0  0  0  0  0  0  0  0  0  0
    1.6794    1.9461    0.0706 H   0  0  0  0  0  0  0  0  0  0  0  0
   -0.4372    0.1194   -2.3038 H   0  0  0  0  0  0  0  0  0  0  0  0
    2.4534   -2.9991   -2.8937 H   0  0  0  0  0  0  0  0  0  0  0  0
    4.0947   -1.7139   -1.5945 H   0  0  0  0  0  0  0  0  0  0  0  0
    4.7575   -1.0738   -0.0949 H   0  0  0  0  0  0  0  0  0  0  0  0
    6.8212   -0.2757   -1.2142 H   0  0  0  0  0  0  0  0  0  0  0  0
    5.4299   -0.2182   -2.3230 H   0  0  0  0  0  0  0  0  0  0  0  0
    6.0285    1.2783   -1.5677 H   0  0  0  0  0  0  0  0  0  0  0  0
    4.8564    0.4418    1.8652 H   0  0  0  0  0  0  0  0  0  0  0  0
    6.4863    0.1097    1.2315 H   0  0  0  0  0  0  0  0  0  0  0  0
    5.6935    1.6637    0.8780 H   0  0  0  0  0  0  0  0  0  0  0  0
   -1.7892   -6.0971   -3.8268 H   0  0  0  0  0  0  0  0  0  0  0  0
   -3.7829   -6.5913   -2.4688 H   0  0  0  0  0  0  0  0  0  0  0  0
   -1.9257   -4.7805    0.9167 H   0  0  0  0  0  0  0  0  0  0  0  0
    0.0713   -4.2939   -0.4391 H   0  0  0  0  0  0  0  0  0  0  0  0
   -3.5657   -8.0246    0.6031 H   0  0  0  0  0  0  0  0  0  0  0  0
   -5.3163   -7.7477    0.7682 H   0  0  0  0  0  0  0  0  0  0  0  0
   -4.5868   -7.8928   -0.8489 H   0  0  0  0  0  0  0  0  0  0  0  0
   -3.8135   -4.4314    1.5440 H   0  0  0  0  0  0  0  0  0  0  0  0
   -4.8646   -5.7264    2.1656 H   0  0  0  0  0  0  0  0  0  0  0  0
   -3.1141   -6.0033    2.0004 H   0  0  0  0  0  0  0  0  0  0  0  0
   -5.5685   -5.6864   -1.4896 H   0  0  0  0  0  0  0  0  0  0  0  0
   -6.2979   -5.5413    0.1275 H   0  0  0  0  0  0  0  0  0  0  0  0
   -5.2468   -4.2463   -0.4941 H   0  0  0  0  0  0  0  0  0  0  0  0
    0.5490   -7.5840   -2.6354 H   0  0  0  0  0  0  0  0  0  0  0  0
    0.7039   -8.0339   -4.3506 H   0  0  0  0  0  0  0  0  0  0  0  0
    2.7945   -8.5637   -3.1921 H   0  0  0  0  0  0  0  0  0  0  0  0
    3.0744   -7.2026   -4.3045 H   0  0  0  0  0  0  0  0  0  0  0  0
    3.9537   -6.7674   -2.1266 H   0  0  0  0  0  0  0  0  0  0  0  0
  1  2  1  0  0  0  0
  1 35  1  0  0  0  0
  1 36  1  0  0  0  0
  1 37  1  0  0  0  0
  2  7  2  0  0  0  0
  2  3  1  0  0  0  0
  3  4  2  0  0  0  0
  3 38  1  0  0  0  0
  4  5  1  0  0  0  0
  4 12  1  0  0  0  0
  5  6  2  0  0  0  0
  5 39  1  0  0  0  0
  6  7  1  0  0  0  0
  6 40  1  0  0  0  0
  7  8  1  0  0  0  0
  8  9  1  0  0  0  0
  9 10  1  0  0  0  0
  9 11  1  0  0  0  0
  9 41  1  0  0  0  0
 10 42  1  0  0  0  0
 10 43  1  0  0  0  0
 10 44  1  0  0  0  0
 11 45  1  0  0  0  0
 11 46  1  0  0  0  0
 11 47  1  0  0  0  0
 12 13  2  0  0  0  0
 12 14  1  0  0  0  0
 14 19  1  0  0  0  0
 14 15  2  0  0  0  0
 15 16  1  0  0  0  0
 15 34  1  0  0  0  0
 16 17  2  0  0  0  0
 16 18  1  0  0  0  0
 18 19  1  0  0  0  0
 18 31  1  0  0  0  0
 19 20  1  1  0  0  0
 19 21  1  0  0  0  0
 21 26  2  0  0  0  0
 21 22  1  0  0  0  0
 22 23  2  0  0  0  0
 22 48  1  0  0  0  0
 23 24  1  0  0  0  0
 23 49  1  0  0  0  0
 24 25  2  0  0  0  0
 24 27  1  0  0  0  0
 25 26  1  0  0  0  0
 25 50  1  0  0  0  0
 26 51  1  0  0  0  0
 27 28  1  0  0  0  0
 27 29  1  0  0  0  0
 27 30  1  0  0  0  0
 28 52  1  0  0  0  0
 28 53  1  0  0  0  0
 28 54  1  0  0  0  0
 29 55  1  0  0  0  0
 29 56  1  0  0  0  0
 29 57  1  0  0  0  0
 30 58  1  0  0  0  0
 30 59  1  0  0  0  0
 30 60  1  0  0  0  0
 31 32  1  0  0  0  0
 31 61  1  0  0  0  0
 31 62  1  0  0  0  0
 32 33  1  0  0  0  0
 32 63  1  0  0  0  0
 32 64  1  0  0  0  0
 33 65  1  0  0  0  0
M  CHG  1  34  -1
M  END
$$$$
ZINC40076659
 OpenBabel01252620473D

 51 53  0  0  1  0  0  0  0  0999 V2000
   -0.7114    1.7511   -0.4335 C   0  0  0  0  0  0  0  0  0  0  0  0
   -0.4211    0.3533   -0.3707 O   0  0  0  0  0  0  0  0  0  0  0  0
    0.1383   -0.2109   -1.4734 C   0  0  0  0  0  0  0  0  0  0  0  0
    0.5005    0.5830   -2.5521 C   0  0  0  0  0  0  0  0  0  0  0  0
    1.0689    0.0077   -3.6718 C   0  0  0  0  0  0  0  0  0  0  0  0
    1.2772   -1.3594   -3.7182 C   0  0  0  0  0  0  0  0  0  0  0  0
    0.9164   -2.1527   -2.6441 C   0  0  0  0  0  0  0  0  0  0  0  0
    0.3533   -1.5804   -1.5197 C   0  0  0  0  0  0  0  0  0  0  0  0
   -0.0329   -2.4443   -0.3468 C   0  0  1  0  0  0  0  0  0  0  0  0
    0.0982   -1.8924    0.5839 H   0  0  0  0  0  0  0  0  0  0  0  0
   -1.4679   -2.8965   -0.4849 C   0  0  0  0  0  0  0  0  0  0  0  0
   -1.4478   -4.2488   -0.5394 C   0  0  0  0  0  0  0  0  0  0  0  0
   -0.0493   -4.7178   -0.4426 C   0  0  0  0  0  0  0  0  0  0  0  0
    0.2988   -5.8817   -0.4625 O   0  0  0  0  0  0  0  0  0  0  0  0
    0.7823   -3.6646   -0.3289 N   0  0  0  0  0  0  0  0  0  0  0  0
    2.2411   -3.7251   -0.2092 C   0  0  0  0  0  0  0  0  0  0  0  0
    2.6286   -3.8055    1.2687 C   0  0  0  0  0  0  0  0  0  0  0  0
    2.1528   -5.0351    1.8197 O   0  0  0  0  0  0  0  0  0  0  0  0
    2.4636   -5.2108    3.2034 C   0  0  0  0  0  0  0  0  0  0  0  0
    1.9090   -6.5533    3.6842 C   0  0  0  0  0  0  0  0  0  0  0  0
    2.5823   -7.6167    3.0075 O   0  0  0  0  0  0  0  0  0  0  0  0
   -2.5348   -5.0447   -0.6624 O   0  5  0  0  0  0  0  0  0  0  0  0
   -2.6535   -2.0365   -0.5474 C   0  0  0  0  0  0  0  0  0  0  0  0
   -3.3337   -2.0105   -1.5558 O   0  0  0  0  0  0  0  0  0  0  0  0
   -3.0224   -1.2010    0.6146 C   0  0  0  0  0  0  0  0  0  0  0  0
   -2.3066   -1.3063    1.8096 C   0  0  0  0  0  0  0  0  0  0  0  0
   -2.6553   -0.5239    2.8898 C   0  0  0  0  0  0  0  0  0  0  0  0
   -3.7134    0.3651    2.7921 C   0  0  0  0  0  0  0  0  0  0  0  0
   -4.4272    0.4742    1.6097 C   0  0  0  0  0  0  0  0  0  0  0  0
   -4.0846   -0.2986    0.5206 C   0  0  0  0  0  0  0  0  0  0  0  0
   -4.1471    1.3461    4.1572 Cl  0  0  0  0  0  0  0  0  0  0  0  0
    2.0555   -2.1443   -5.2525 Br  0  0  0  0  0  0  0  0  0  0  0  0
    0.2182    2.3110   -0.5351 H   0  0  0  0  0  0  0  0  0  0  0  0
   -1.3517    1.9509   -1.2928 H   0  0  0  0  0  0  0  0  0  0  0  0
   -1.2223    2.0574    0.4793 H   0  0  0  0  0  0  0  0  0  0  0  0
    0.3377    1.6501   -2.5165 H   0  0  0  0  0  0  0  0  0  0  0  0
    1.3506    0.6253   -4.5118 H   0  0  0  0  0  0  0  0  0  0  0  0
    1.0795   -3.2196   -2.6824 H   0  0  0  0  0  0  0  0  0  0  0  0
    2.6122   -4.6075   -0.7306 H   0  0  0  0  0  0  0  0  0  0  0  0
    2.6794   -2.8305   -0.6516 H   0  0  0  0  0  0  0  0  0  0  0  0
    3.7136   -3.7610    1.3628 H   0  0  0  0  0  0  0  0  0  0  0  0
    2.1827   -2.9693    1.8073 H   0  0  0  0  0  0  0  0  0  0  0  0
    3.5452   -5.1955    3.3376 H   0  0  0  0  0  0  0  0  0  0  0  0
    2.0142   -4.4038    3.7821 H   0  0  0  0  0  0  0  0  0  0  0  0
    2.0677   -6.6482    4.7584 H   0  0  0  0  0  0  0  0  0  0  0  0
    0.8417   -6.6036    3.4687 H   0  0  0  0  0  0  0  0  0  0  0  0
    2.2808   -8.4991    3.2636 H   0  0  0  0  0  0  0  0  0  0  0  0
   -1.4821   -1.9995    1.8872 H   0  0  0  0  0  0  0  0  0  0  0  0
   -2.1027   -0.6044    3.8143 H   0  0  0  0  0  0  0  0  0  0  0  0
   -5.2510    1.1691    1.5396 H   0  0  0  0  0  0  0  0  0  0  0  0
   -4.6388   -0.2094   -0.4020 H   0  0  0  0  0  0  0  0  0  0  0  0
  1  2  1  0  0  0  0
  1 33  1  0  0  0  0
  1 34  1  0  0  0  0
  1 35  1  0  0  0  0
  2  3  1  0  0  0  0
  3  8  2  0  0  0  0
  3  4  1  0  0  0  0
  4  5  2  0  0  0  0
  4 36  1  0  0  0  0
  5  6  1  0  0  0  0
  5 37  1  0  0  0  0
  6  7  2  0  0  0  0
  6 32  1  0  0  0  0
  7  8  1  0  0  0  0
  7 38  1  0  0  0  0
  8  9  1  0  0  0  0
  9 10  1  1  0  0  0
  9 15  1  0  0  0  0
  9 11  1  0  0  0  0
 11 12  2  0  0  0  0
 11 23  1  0  0  0  0
 12 13  1  0  0  0  0
 12 22  1  0  0  0  0
 13 14  2  0  0  0  0
 13 15  1  0  0  0  0
 15 16  1  0  0  0  0
 16 17  1  0  0  0  0
 16 39  1  0  0  0  0
 16 40  1  0  0  0  0
 17 18  1  0  0  0  0
 17 41  1  0  0  0  0
 17 42  1  0  0  0  0
 18 19  1  0  0  0  0
 19 20  1  0  0  0  0
 19 43  1  0  0  0  0
 19 44  1  0  0  0  0
 20 21  1  0  0  0  0
 20 45  1  0  0  0  0
 20 46  1  0  0  0  0
 21 47  1  0  0  0  0
 23 24  2  0  0  0  0
 23 25  1  0  0  0  0
 25 30  2  0  0  0  0
 25 26  1  0  0  0  0
 26 27  2  0  0  0  0
 26 48  1  0  0  0  0
 27 28  1  0  0  0  0
 27 49  1  0  0  0  0
 28 29  2  0  0  0  0
 28 31  1  0  0  0  0
 29 30  1  0  0  0  0
 29 50  1  0  0  0  0
 30 51  1  0  0  0  0
M  CHG  1  22  -1
M  END
$$$$
ZINC12904432
 OpenBabel01252620473D

 54 56  0  0  0  0  0  0  0  0999 V2000
    0.0106    1.2725    0.0654 C   0  0  0  0  0  0  0  0  0  0  0  0
   -0.7200    1.7552   -1.1611 C   0  0  0  0  0  0  0  0  0  0  0  0
   -2.0812    1.9907   -1.1160 C   0  0  0  0  0  0  0  0  0  0  0  0
   -2.7183    2.4372   -2.2734 C   0  0  0  0  0  0  0  0  0  0  0  0
   -4.0513    2.6810   -2.2733 O   0  5  0  0  0  0  0  0  0  0  0  0
   -2.0009    2.6205   -3.3747 N   0  0  0  0  0  0  0  0  0  0  0  0
   -0.6967    2.3835   -3.3785 C   0  0  0  0  0  0  0  0  0  0  0  0
   -0.0638    1.9636   -2.2925 N   0  0  0  0  0  0  0  0  0  0  0  0
    0.2190    2.6396   -4.8620 S   0  0  0  0  0  0  0  0  0  0  0  0
   -1.0256    3.2068   -6.0536 C   0  0  0  0  0  0  0  0  0  0  0  0
   -0.3662    3.4659   -7.3837 C   0  0  0  0  0  0  0  0  0  0  0  0
    0.8277    3.2854   -7.5150 O   0  0  0  0  0  0  0  0  0  0  0  0
   -1.1360    3.9182   -8.4766 C   0  0  0  0  0  0  0  0  0  0  0  0
   -0.5279    4.2844   -9.6899 C   0  0  0  0  0  0  0  0  0  0  0  0
   -1.3150    4.7157  -10.7194 N   0  0  0  0  0  0  0  0  0  0  0  0
   -2.6487    4.7952  -10.5920 C   0  0  0  0  0  0  0  0  0  0  0  0
   -3.3049    5.1852  -11.5379 O   0  0  0  0  0  0  0  0  0  0  0  0
   -3.2849    4.4592   -9.4581 N   0  0  0  0  0  0  0  0  0  0  0  0
   -2.5985    4.0155   -8.3849 C   0  0  0  0  0  0  0  0  0  0  0  0
   -3.1786    3.7068   -7.3604 O   0  0  0  0  0  0  0  0  0  0  0  0
   -4.7440    4.5702   -9.3877 C   0  0  0  0  0  0  0  0  0  0  0  0
   -0.6909    5.0997  -11.9880 C   0  0  0  0  0  0  0  0  0  0  0  0
   -0.6005    3.8947  -12.8884 C   0  0  0  0  0  0  0  0  0  0  0  0
    0.5165    3.0815  -12.8449 C   0  0  0  0  0  0  0  0  0  0  0  0
    0.5994    1.9761  -13.6708 C   0  0  0  0  0  0  0  0  0  0  0  0
   -0.4350    1.6837  -14.5400 C   0  0  0  0  0  0  0  0  0  0  0  0
   -1.5524    2.4963  -14.5829 C   0  0  0  0  0  0  0  0  0  0  0  0
   -1.6372    3.5993  -13.7539 C   0  0  0  0  0  0  0  0  0  0  0  0
    0.8227    4.2109   -9.8362 N   0  0  0  0  0  0  0  0  0  0  0  0
   -2.8595    1.7696    0.1553 C   0  0  0  0  0  0  0  0  0  0  0  0
   -2.8735    3.0608    0.9759 C   0  0  0  0  0  0  0  0  0  0  0  0
   -3.6116    2.8511    2.1815 O   0  0  0  0  0  0  0  0  0  0  0  0
    0.0091    0.1826    0.0838 H   0  0  0  0  0  0  0  0  0  0  0  0
    1.0386    1.6340    0.0418 H   0  0  0  0  0  0  0  0  0  0  0  0
   -0.4875    1.6516    0.9577 H   0  0  0  0  0  0  0  0  0  0  0  0
   -1.7919    2.4405   -6.1711 H   0  0  0  0  0  0  0  0  0  0  0  0
   -1.4842    4.1264   -5.6901 H   0  0  0  0  0  0  0  0  0  0  0  0
   -5.1957    3.6310   -9.7070 H   0  0  0  0  0  0  0  0  0  0  0  0
   -5.0429    4.7869   -8.3621 H   0  0  0  0  0  0  0  0  0  0  0  0
   -5.0792    5.3753  -10.0415 H   0  0  0  0  0  0  0  0  0  0  0  0
   -1.2928    5.8696  -12.4706 H   0  0  0  0  0  0  0  0  0  0  0  0
    0.3101    5.4871  -11.7979 H   0  0  0  0  0  0  0  0  0  0  0  0
    1.3246    3.3100  -12.1658 H   0  0  0  0  0  0  0  0  0  0  0  0
    1.4724    1.3412  -13.6373 H   0  0  0  0  0  0  0  0  0  0  0  0
   -0.3699    0.8205  -15.1858 H   0  0  0  0  0  0  0  0  0  0  0  0
   -2.3604    2.2680  -15.2622 H   0  0  0  0  0  0  0  0  0  0  0  0
   -2.5118    4.2321  -13.7847 H   0  0  0  0  0  0  0  0  0  0  0  0
    1.3668    3.8275   -9.1306 H   0  0  0  0  0  0  0  0  0  0  0  0
    1.2416    4.5418  -10.6461 H   0  0  0  0  0  0  0  0  0  0  0  0
   -3.8824    1.4838   -0.0899 H   0  0  0  0  0  0  0  0  0  0  0  0
   -2.3896    0.9755    0.7356 H   0  0  0  0  0  0  0  0  0  0  0  0
   -1.8507    3.3466    1.2212 H   0  0  0  0  0  0  0  0  0  0  0  0
   -3.3435    3.8550    0.3957 H   0  0  0  0  0  0  0  0  0  0  0  0
   -3.6620    3.6300    2.7523 H   0  0  0  0  0  0  0  0  0  0  0  0
  1 33  1  0  0  0  0
  1 34  1  0  0  0  0
  1 35  1  0  0  0  0
  1  2  1  0  0  0  0
  2  3  2  0  0  0  0
  2  8  1  0  0  0  0
  3  4  1  0  0  0  0
  3 30  1  0  0  0  0
  4  6  2  0  0  0  0
  4  5  1  0  0  0  0
  6  7  1  0  0  0  0
  7  9  1  0  0  0  0
  7  8  2  0  0  0  0
  9 10  1  0  0  0  0
 10 11  1  0  0  0  0
 10 36  1  0  0  0  0
 10 37  1  0  0  0  0
 11 12  2  0  0  0  0
 11 13  1  0  0  0  0
 13 19  1  0  0  0  0
 13 14  2  0  0  0  0
 14 15  1  0  0  0  0
 14 29  1  0  0  0  0
 15 16  1  0  0  0  0
 15 22  1  0  0  0  0
 16 17  2  0  0  0  0
 16 18  1  0  0  0  0
 18 19  1  0  0  0  0
 18 21  1  0  0  0  0
 19 20  2  0  0  0  0
 21 38  1  0  0  0  0
 21 39  1  0  0  0  0
 21 40  1  0  0  0  0
 22 23  1  0  0  0  0
 22 41  1  0  0  0  0
 22 42  1  0  0  0  0
 23 28  2  0  0  0  0
 23 24  1  0  0  0  0
 24 25  2  0  0  0  0
 24 43  1  0  0  0  0
 25 26  1  0  0  0  0
 25 44  1  0  0  0  0
 26 27  2  0  0  0  0
 26 45  1  0  0  0  0
 27 28  1  0  0  0  0
 27 46  1  0  0  0  0
 28 47  1  0  0  0  0
 29 48  1  0  0  0  0
 29 49  1  0  0  0  0
 30 31  1  0  0  0  0
 30 50  1  0  0  0  0
 30 51  1  0  0  0  0
 31 32  1  0  0  0  0
 31 52  1  0  0  0  0
 31 53  1  0  0  0  0
 32 54  1  0  0  0  0
M  CHG  1   5  -1
M  END
$$$$
ZINC63142662
 OpenBabel01252620473D

 32 32  0  0  1  0  0  0  0  0999 V2000
   -0.9539    1.7600   -0.6426 C   0  0  0  0  0  0  0  0  0  0  0  0
   -0.8836   -0.0527   -0.6463 S   0  0  0  0  0  0  0  0  0  0  0  0
   -0.3940   -0.4861    0.6153 O   0  0  0  0  0  0  0  0  0  0  0  0
   -2.1309   -0.5499   -1.1113 O   0  0  0  0  0  0  0  0  0  0  0  0
    0.3777   -0.4023   -1.9022 C   0  0  0  0  0  0  0  0  0  0  0  0
    0.5624   -1.9155   -2.0321 C   0  0  0  0  0  0  0  0  0  0  0  0
    1.8237   -2.2652   -3.2881 S   0  0  0  0  0  0  0  0  0  0  0  0
    1.3109   -1.9942   -4.5854 O   0  0  0  0  0  0  0  0  0  0  0  0
    3.0791   -1.7386   -2.8808 O   0  0  0  0  0  0  0  0  0  0  0  0
    2.0214   -3.9088   -3.2467 N   0  0  0  0  0  0  0  0  0  0  0  0
    0.8646   -4.7904   -3.4228 C   0  0  2  0  0  0  0  0  0  0  0  0
    1.3359   -6.1475   -3.9712 C   0  0  0  0  0  0  0  0  0  0  0  0
    1.7403   -5.9540   -5.4606 C   0  0  0  0  0  0  0  0  0  0  0  0
    0.3959   -4.8310   -6.0318 S   0  0  0  0  0  0  0  0  0  0  0  0
   -0.1320   -4.1390   -4.4117 C   0  0  0  0  0  0  0  0  0  0  0  0
    0.1867   -4.9976   -2.0930 C   0  0  0  0  0  0  0  0  0  0  0  0
    0.6961   -4.5620   -1.0745 O   0  0  0  0  0  0  0  0  0  0  0  0
   -0.8713   -5.6009   -2.0355 O   0  0  0  0  0  1  0  0  0  0  0  0
    0.0249    2.1609   -0.3792 H   0  0  0  0  0  0  0  0  0  0  0  0
   -1.2371    2.1146   -1.6336 H   0  0  0  0  0  0  0  0  0  0  0  0
   -1.6916    2.0935    0.0872 H   0  0  0  0  0  0  0  0  0  0  0  0
    0.0599    0.0085   -2.8605 H   0  0  0  0  0  0  0  0  0  0  0  0
    1.3218    0.0549   -1.6061 H   0  0  0  0  0  0  0  0  0  0  0  0
    0.8802   -2.3264   -1.0738 H   0  0  0  0  0  0  0  0  0  0  0  0
   -0.3818   -2.3727   -2.3283 H   0  0  0  0  0  0  0  0  0  0  0  0
    2.9031   -4.2878   -3.1059 H   0  0  0  0  0  0  0  0  0  0  0  0
    2.1950   -6.4975   -3.3989 H   0  0  0  0  0  0  0  0  0  0  0  0
    0.5264   -6.8741   -3.9009 H   0  0  0  0  0  0  0  0  0  0  0  0
    2.7161   -5.4757   -5.5451 H   0  0  0  0  0  0  0  0  0  0  0  0
    1.7194   -6.9005   -6.0008 H   0  0  0  0  0  0  0  0  0  0  0  0
   -1.1553   -4.4347   -4.1801 H   0  0  0  0  0  0  0  0  0  0  0  0
   -0.0310   -3.0537   -4.4035 H   0  0  0  0  0  0  0  0  0  0  0  0
  1  2  1  0  0  0  0
  1 19  1  0  0  0  0
  1 20  1  0  0  0  0
  1 21  1  0  0  0  0
  2  3  2  0  0  0  0
  2  4  2  0  0  0  0
  2  5  1  0  0  0  0
  5  6  1  0  0  0  0
  5 22  1  0  0  0  0
  5 23  1  0  0  0  0
  6  7  1  0  0  0  0
  6 24  1  0  0  0  0
  6 25  1  0  0  0  0
  7  8  2  0  0  0  0
  7  9  2  0  0  0  0
  7 10  1  0  0  0  0
 10 11  1  0  0  0  0
 10 26  1  0  0  0  0
 11 15  1  0  0  0  0
 11 12  1  0  0  0  0
 11 16  1  1  0  0  0
 12 13  1  0  0  0  0
 12 27  1  0  0  0  0
 12 28  1  0  0  0  0
 13 14  1  0  0  0  0
 13 29  1  0  0  0  0
 13 30  1  0  0  0  0
 14 15  1  0  0  0  0
 15 31  1  0  0  0  0
 15 32  1  0  0  0  0
 16 17  2  0  0  0  0
 16 18  1  0  0  0  0
M  END
$$$$
ZINC36746366
 OpenBabel01252620473D

 32 32  0  0  0  0  0  0  0  0999 V2000
   -0.0184    1.5028    0.0103 C   0  0  0  0  0  0  0  0  0  0  0  0
    0.0021   -0.0041    0.0020 C   0  0  0  0  0  0  0  0  0  0  0  0
    1.0605   -0.5961   -0.0113 O   0  0  0  0  0  0  0  0  0  0  0  0
   -1.1558   -0.6938    0.0094 N   0  0  0  0  0  0  0  0  0  0  0  0
   -1.1360   -2.1586    0.0013 C   0  0  0  0  0  0  0  0  0  0  0  0
   -2.5713   -2.6882    0.0122 C   0  0  0  0  0  0  0  0  0  0  0  0
   -2.5515   -4.1530    0.0041 N   0  0  0  0  0  0  0  0  0  0  0  0
   -3.9218   -5.0018    0.3838 S   0  0  0  0  0  0  0  0  0  0  0  0
   -3.5934   -6.3789    0.2620 O   0  0  0  0  0  0  0  0  0  0  0  0
   -4.4250   -4.4424    1.5893 O   0  0  0  0  0  0  0  0  0  0  0  0
   -5.1127   -4.6555   -0.8677 C   0  0  0  0  0  0  0  0  0  0  0  0
   -5.5532   -5.6677   -1.6997 C   0  0  0  0  0  0  0  0  0  0  0  0
   -6.4893   -5.4055   -2.6867 C   0  0  0  0  0  0  0  0  0  0  0  0
   -6.9897   -4.1303   -2.8476 C   0  0  0  0  0  0  0  0  0  0  0  0
   -6.5506   -3.0999   -2.0114 C   0  0  0  0  0  0  0  0  0  0  0  0
   -5.6089   -3.3729   -1.0119 C   0  0  0  0  0  0  0  0  0  0  0  0
   -5.1821   -2.3853   -0.1948 F   0  0  0  0  0  0  0  0  0  0  0  0
   -7.0801   -1.7348   -2.1773 C   0  0  0  0  0  0  0  0  0  0  0  0
   -7.9060   -1.5009   -3.0486 O   0  0  0  0  0  0  0  0  0  0  0  0
   -6.6936   -0.8356   -1.4437 O   0  0  0  0  0  1  0  0  0  0  0  0
   -7.0825   -6.8003   -3.8174 Br  0  0  0  0  0  0  0  0  0  0  0  0
    1.0042    1.8801    0.0026 H   0  0  0  0  0  0  0  0  0  0  0  0
   -0.5455    1.8639   -0.8728 H   0  0  0  0  0  0  0  0  0  0  0  0
   -0.5286    1.8543    0.9071 H   0  0  0  0  0  0  0  0  0  0  0  0
   -2.0023   -0.2203    0.0200 H   0  0  0  0  0  0  0  0  0  0  0  0
   -0.6258   -2.5101   -0.8955 H   0  0  0  0  0  0  0  0  0  0  0  0
   -0.6088   -2.5197    0.8844 H   0  0  0  0  0  0  0  0  0  0  0  0
   -3.0815   -2.3367    0.9090 H   0  0  0  0  0  0  0  0  0  0  0  0
   -3.0985   -2.3271   -0.8709 H   0  0  0  0  0  0  0  0  0  0  0  0
   -1.7357   -4.6258   -0.2236 H   0  0  0  0  0  0  0  0  0  0  0  0
   -5.1651   -6.6685   -1.5798 H   0  0  0  0  0  0  0  0  0  0  0  0
   -7.7188   -3.9283   -3.6183 H   0  0  0  0  0  0  0  0  0  0  0  0
  1  2  1  0  0  0  0
  1 22  1  0  0  0  0
  1 23  1  0  0  0  0
  1 24  1  0  0  0  0
  2  3  2  0  0  0  0
  2  4  1  0  0  0  0
  4  5  1  0  0  0  0
  4 25  1  0  0  0  0
  5  6  1  0  0  0  0
  5 26  1  0  0  0  0
  5 27  1  0  0  0  0
  6  7  1  0  0  0  0
  6 28  1  0  0  0  0
  6 29  1  0  0  0  0
  7  8  1  0  0  0  0
  7 30  1  0  0  0  0
  8  9  2  0  0  0  0
  8 10  2  0  0  0  0
  8 11  1  0  0  0  0
 11 16  2  0  0  0  0
 11 12  1  0  0  0  0
 12 13  2  0  0  0  0
 12 31  1  0  0  0  0
 13 14  1  0  0  0  0
 13 21  1  0  0  0  0
 14 15  2  0  0  0  0
 14 32  1  0  0  0  0
 15 16  1  0  0  0  0
 15 18  1  0  0  0  0
 16 17  1  0  0  0  0
 18 19  2  0  0  0  0
 18 20  1  0  0  0  0
M  END
$$$$
ZINC32972771
 OpenBabel01252620473D

 59 61  0  0  0  0  0  0  0  0999 V2000
   -3.7763    2.1182   -3.4690 C   0  0  0  0  0  0  0  0  0  0  0  0
   -2.9768    0.8339   -3.2403 C   0  0  0  0  0  0  0  0  0  0  0  0
   -2.7904    0.1051   -4.5726 C   0  0  0  0  0  0  0  0  0  0  0  0
   -2.0248   -1.1246   -4.3537 N   0  0  0  0  0  0  0  0  0  0  0  0
   -2.4028   -2.3695   -4.7119 C   0  0  0  0  0  0  0  0  0  0  0  0
   -1.4229   -3.2228   -4.3343 C   0  0  0  0  0  0  0  0  0  0  0  0
   -0.4114   -2.4737   -3.7243 C   0  0  0  0  0  0  0  0  0  0  0  0
   -0.7684   -1.2151   -3.7408 N   0  0  0  0  0  0  0  0  0  0  0  0
    0.8713   -3.0209   -3.1531 C   0  0  0  0  0  0  0  0  0  0  0  0
   -1.4219   -4.7164   -4.5346 C   0  0  0  0  0  0  0  0  0  0  0  0
   -1.8138   -5.3768   -3.2870 N   0  0  0  0  0  2  0  0  0  0  0  0
   -2.0032   -6.7276   -3.2605 C   0  0  0  0  0  0  0  0  0  0  0  0
   -1.2934   -7.5328   -4.1032 N   0  0  0  0  0  0  0  0  0  0  0  0
    0.0391   -7.2265   -4.4077 C   0  0  0  0  0  0  0  0  0  0  0  0
    0.8229   -6.5427   -3.4896 C   0  0  0  0  0  0  0  0  0  0  0  0
    2.1373   -6.2417   -3.7923 C   0  0  0  0  0  0  0  0  0  0  0  0
    2.6744   -6.6203   -5.0090 C   0  0  0  0  0  0  0  0  0  0  0  0
    1.8995   -7.3020   -5.9289 C   0  0  0  0  0  0  0  0  0  0  0  0
    0.5826   -7.6127   -5.6309 C   0  0  0  0  0  0  0  0  0  0  0  0
   -0.1791   -8.2881   -6.5323 O   0  0  0  0  0  0  0  0  0  0  0  0
    0.4447   -8.6520   -7.7654 C   0  0  0  0  0  0  0  0  0  0  0  0
   -0.5604   -9.3988   -8.6445 C   0  0  0  0  0  0  0  0  0  0  0  0
   -2.8759   -7.2575   -2.4167 N   0  0  0  0  0  0  0  0  0  0  0  0
   -2.9485   -8.5877   -2.2758 C   0  0  0  0  0  0  0  0  0  0  0  0
   -2.1380   -9.3046   -2.8354 O   0  0  0  0  0  0  0  0  0  0  0  0
   -4.0137   -9.1865   -1.4398 C   0  0  0  0  0  0  0  0  0  0  0  0
   -5.0103   -8.3788   -0.8912 C   0  0  0  0  0  0  0  0  0  0  0  0
   -6.0002   -8.9420   -0.1132 C   0  0  0  0  0  0  0  0  0  0  0  0
   -6.0060  -10.3066    0.1238 C   0  0  0  0  0  0  0  0  0  0  0  0
   -5.0189  -11.1130   -0.4180 C   0  0  0  0  0  0  0  0  0  0  0  0
   -4.0278  -10.5613   -1.2026 C   0  0  0  0  0  0  0  0  0  0  0  0
   -7.2550  -11.0087    1.1040 Cl  0  0  0  0  0  0  0  0  0  0  0  0
   -3.2375    2.7628   -4.1635 H   0  0  0  0  0  0  0  0  0  0  0  0
   -4.7519    1.8693   -3.8866 H   0  0  0  0  0  0  0  0  0  0  0  0
   -3.9091    2.6374   -2.5198 H   0  0  0  0  0  0  0  0  0  0  0  0
   -2.0012    1.0828   -2.8227 H   0  0  0  0  0  0  0  0  0  0  0  0
   -3.5155    0.1893   -2.5458 H   0  0  0  0  0  0  0  0  0  0  0  0
   -3.7660   -0.1437   -4.9902 H   0  0  0  0  0  0  0  0  0  0  0  0
   -2.2516    0.7497   -5.2671 H   0  0  0  0  0  0  0  0  0  0  0  0
   -3.3228   -2.6369   -5.2104 H   0  0  0  0  0  0  0  0  0  0  0  0
    1.6390   -3.0297   -3.9269 H   0  0  0  0  0  0  0  0  0  0  0  0
    1.1976   -2.3921   -2.3248 H   0  0  0  0  0  0  0  0  0  0  0  0
    0.7052   -4.0368   -2.7946 H   0  0  0  0  0  0  0  0  0  0  0  0
   -2.1291   -4.9779   -5.3218 H   0  0  0  0  0  0  0  0  0  0  0  0
   -0.4224   -5.0440   -4.8207 H   0  0  0  0  0  0  0  0  0  0  0  0
    0.4059   -6.2454   -2.5388 H   0  0  0  0  0  0  0  0  0  0  0  0
    2.7464   -5.7090   -3.0770 H   0  0  0  0  0  0  0  0  0  0  0  0
    3.7019   -6.3826   -5.2414 H   0  0  0  0  0  0  0  0  0  0  0  0
    2.3220   -7.5960   -6.8783 H   0  0  0  0  0  0  0  0  0  0  0  0
    0.7811   -7.7528   -8.2816 H   0  0  0  0  0  0  0  0  0  0  0  0
    1.3002   -9.2966   -7.5635 H   0  0  0  0  0  0  0  0  0  0  0  0
   -0.0846   -9.6763   -9.5851 H   0  0  0  0  0  0  0  0  0  0  0  0
   -0.8968  -10.2980   -8.1284 H   0  0  0  0  0  0  0  0  0  0  0  0
   -1.4159   -8.7542   -8.8464 H   0  0  0  0  0  0  0  0  0  0  0  0
   -1.7116   -8.3172   -4.4913 H   0  0  0  0  0  0  0  0  0  0  0  0
   -5.0065   -7.3146   -1.0750 H   0  0  0  0  0  0  0  0  0  0  0  0
   -6.7719   -8.3177    0.3123 H   0  0  0  0  0  0  0  0  0  0  0  0
   -5.0279  -12.1763   -0.2294 H   0  0  0  0  0  0  0  0  0  0  0  0
   -3.2614  -11.1918   -1.6288 H   0  0  0  0  0  0  0  0  0  0  0  0
  1  2  1  0  0  0  0
  1 33  1  0  0  0  0
  1 34  1  0  0  0  0
  1 35  1  0  0  0  0
  2  3  1  0  0  0  0
  2 36  1  0  0  0  0
  2 37  1  0  0  0  0
  3  4  1  0  0  0  0
  3 38  1  0  0  0  0
  3 39  1  0  0  0  0
  4  8  1  0  0  0  0
  4  5  1  0  0  0  0
  5  6  2  0  0  0  0
  5 40  1  0  0  0  0
  6  7  1  0  0  0  0
  6 10  1  0  0  0  0
  7  8  2  0  0  0  0
  7  9  1  0  0  0  0
  9 41  1  0  0  0  0
  9 42  1  0  0  0  0
  9 43  1  0  0  0  0
 10 44  1  0  0  0  0
 10 45  1  0  0  0  0
 10 11  1  0  0  0  0
 11 12  1  0  0  0  0
 12 13  1  0  0  0  0
 12 23  2  0  0  0  0
 13 14  1  0  0  0  0
 13 55  1  0  0  0  0
 14 19  2  0  0  0  0
 14 15  1  0  0  0  0
 15 16  2  0  0  0  0
 15 46  1  0  0  0  0
 16 17  1  0  0  0  0
 16 47  1  0  0  0  0
 17 18  2  0  0  0  0
 17 48  1  0  0  0  0
 18 19  1  0  0  0  0
 18 49  1  0  0  0  0
 19 20  1  0  0  0  0
 20 21  1  0  0  0  0
 21 22  1  0  0  0  0
 21 50  1  0  0  0  0
 21 51  1  0  0  0  0
 22 52  1  0  0  0  0
 22 53  1  0  0  0  0
 22 54  1  0  0  0  0
 23 24  1  0  0  0  0
 24 25  2  0  0  0  0
 24 26  1  0  0  0  0
 26 31  2  0  0  0  0
 26 27  1  0  0  0  0
 27 28  2  0  0  0  0
 27 56  1  0  0  0  0
 28 29  1  0  0  0  0
 28 57  1  0  0  0  0
 29 30  2  0  0  0  0
 29 32  1  0  0  0  0
 30 31  1  0  0  0  0
 30 58  1  0  0  0  0
 31 59  1  0  0  0  0
M  END
$$$$
ZINC06909122
 OpenBabel01252620473D

 35 37  0  0  1  0  0  0  0  0999 V2000
   -0.0167    1.3827    0.0096 C   0  0  0  0  0  0  0  0  0  0  0  0
    0.0021   -0.0041    0.0020 C   0  0  0  0  0  0  0  0  0  0  0  0
   -1.1949   -0.7012    0.0102 C   0  0  0  0  0  0  0  0  0  0  0  0
   -2.3528   -0.0751    0.0246 N   0  0  0  0  0  0  0  0  0  0  0  0
   -2.4256    1.2542    0.0325 C   0  0  0  0  0  0  0  0  0  0  0  0
   -1.2471    2.0218    0.0307 C   0  0  0  0  0  0  0  0  0  0  0  0
   -1.6459    3.3475    0.0434 N   0  0  0  0  0  2  0  0  0  0  0  0
   -3.0114    3.3566    0.0631 C   0  0  0  0  0  0  0  0  0  0  0  0
   -3.4651    2.1257    0.0470 N   0  0  0  0  0  0  0  0  0  0  0  0
   -4.0143    4.8052    0.0857 S   0  0  0  0  0  0  0  0  0  0  0  0
   -5.7110    4.1640    0.1064 C   0  0  0  0  0  0  0  0  0  0  0  0
   -6.6830    5.3155    0.1268 C   0  0  0  0  0  0  0  0  0  0  0  0
   -6.2715    6.4564    0.1274 O   0  0  0  0  0  0  0  0  0  0  0  0
   -8.0094    5.0775    0.1445 N   0  0  0  0  0  0  0  0  0  0  0  0
   -8.9543    6.1969    0.1644 C   0  0  0  0  0  0  0  0  0  0  0  0
  -10.3854    5.6561    0.1818 C   0  0  1  0  0  0  0  0  0  0  0  0
  -10.5416    5.0293    1.0598 H   0  0  0  0  0  0  0  0  0  0  0  0
  -11.4023    6.8251    0.1678 C   0  0  0  0  0  0  0  0  0  0  0  0
  -12.6451    6.1274   -0.4490 C   0  0  0  0  0  0  0  0  0  0  0  0
  -12.0039    5.1306   -1.4383 C   0  0  0  0  0  0  0  0  0  0  0  0
  -10.6513    4.9105   -1.0168 O   0  0  0  0  0  0  0  0  0  0  0  0
    1.6478   -0.9352   -0.0200 Br  0  0  0  0  0  0  0  0  0  0  0  0
    0.9025    1.9497    0.0039 H   0  0  0  0  0  0  0  0  0  0  0  0
   -1.1778   -1.7811    0.0042 H   0  0  0  0  0  0  0  0  0  0  0  0
   -5.8821    3.5600   -0.7847 H   0  0  0  0  0  0  0  0  0  0  0  0
   -5.8566    3.5498    0.9950 H   0  0  0  0  0  0  0  0  0  0  0  0
   -8.3385    4.1650    0.1440 H   0  0  0  0  0  0  0  0  0  0  0  0
   -8.7832    6.8009    1.0555 H   0  0  0  0  0  0  0  0  0  0  0  0
   -8.8087    6.8111   -0.7243 H   0  0  0  0  0  0  0  0  0  0  0  0
  -11.6104    7.1770    1.1783 H   0  0  0  0  0  0  0  0  0  0  0  0
  -11.0546    7.6407   -0.4663 H   0  0  0  0  0  0  0  0  0  0  0  0
  -13.2148    5.6014    0.3171 H   0  0  0  0  0  0  0  0  0  0  0  0
  -13.2726    6.8467   -0.9751 H   0  0  0  0  0  0  0  0  0  0  0  0
  -12.5526    4.1889   -1.4221 H   0  0  0  0  0  0  0  0  0  0  0  0
  -12.0153    5.5493   -2.4446 H   0  0  0  0  0  0  0  0  0  0  0  0
  1  2  2  0  0  0  0
  1 23  1  0  0  0  0
  1  6  1  0  0  0  0
  2  3  1  0  0  0  0
  2 22  1  0  0  0  0
  3 24  1  0  0  0  0
  3  4  2  0  0  0  0
  4  5  1  0  0  0  0
  5  9  1  0  0  0  0
  5  6  2  0  0  0  0
  6  7  1  0  0  0  0
  7  8  1  0  0  0  0
  8 10  1  0  0  0  0
  8  9  2  0  0  0  0
 10 11  1  0  0  0  0
 11 12  1  0  0  0  0
 11 25  1  0  0  0  0
 11 26  1  0  0  0  0
 12 13  2  0  0  0  0
 12 14  1  0  0  0  0
 14 15  1  0  0  0  0
 14 27  1  0  0  0  0
 15 16  1  0  0  0  0
 15 28  1  0  0  0  0
 15 29  1  0  0  0  0
 16 17  1  1  0  0  0
 16 21  1  0  0  0  0
 16 18  1  0  0  0  0
 18 19  1  0  0  0  0
 18 30  1  0  0  0  0
 18 31  1  0  0  0  0
 19 20  1  0  0  0  0
 19 32  1  0  0  0  0
 19 33  1  0  0  0  0
 20 21  1  0  0  0  0
 20 34  1  0  0  0  0
 20 35  1  0  0  0  0
M  END
$$$$
ZINC52784305
 OpenBabel01252620473D

 40 40  0  0  1  0  0  0  0  0999 V2000
   -0.0184    1.5028    0.0103 C   0  0  0  0  0  0  0  0  0  0  0  0
    0.0021   -0.0041    0.0020 C   0  0  0  0  0  0  0  0  0  0  0  0
    0.0080   -0.8237   -1.1409 C   0  0  0  0  0  0  0  0  0  0  0  0
    0.0273   -2.1079   -0.7353 C   0  0  0  0  0  0  0  0  0  0  0  0
    0.0335   -2.1190    0.6064 O   0  0  0  0  0  0  0  0  0  0  0  0
    0.0230   -0.7748    1.0524 N   0  0  0  0  0  0  0  0  0  0  0  0
    0.0393   -3.3197   -1.6311 C   0  0  0  0  0  0  0  0  0  0  0  0
   -0.0053   -0.3478   -2.5707 C   0  0  0  0  0  0  0  0  0  0  0  0
    1.6994   -0.1332   -3.1525 S   0  0  0  0  0  0  0  0  0  0  0  0
    1.5104    0.4347   -4.8649 C   0  0  0  0  0  0  0  0  0  0  0  0
    2.8711    0.6543   -5.4744 C   0  0  0  0  0  0  0  0  0  0  0  0
    3.8699    0.4481   -4.8181 O   0  0  0  0  0  0  0  0  0  0  0  0
    2.9779    1.0799   -6.7487 N   0  0  0  0  0  0  0  0  0  0  0  0
    4.3007    1.2934   -7.3412 C   0  0  2  0  0  0  0  0  0  0  0  0
    4.9836    1.6695   -6.5794 H   0  0  0  0  0  0  0  0  0  0  0  0
    4.1923    2.3128   -8.4769 C   0  0  0  0  0  0  0  0  0  0  0  0
    3.7806    3.6711   -7.9056 C   0  0  0  0  0  0  0  0  0  0  0  0
    3.6794    4.6232   -8.9664 O   0  0  0  0  0  0  0  0  0  0  0  0
    3.2984    5.9322   -8.5381 C   0  0  0  0  0  0  0  0  0  0  0  0
    4.8240   -0.0110   -7.8851 C   0  0  0  0  0  0  0  0  0  0  0  0
    4.0892   -0.9815   -7.9536 O   0  0  0  0  0  0  0  0  0  0  0  0
    5.9821   -0.0957   -8.2567 O   0  0  0  0  0  1  0  0  0  0  0  0
    1.0042    1.8801    0.0026 H   0  0  0  0  0  0  0  0  0  0  0  0
   -0.5455    1.8639   -0.8728 H   0  0  0  0  0  0  0  0  0  0  0  0
   -0.5286    1.8543    0.9071 H   0  0  0  0  0  0  0  0  0  0  0  0
    1.0697   -3.5980   -1.8521 H   0  0  0  0  0  0  0  0  0  0  0  0
   -0.4610   -4.1477   -1.1290 H   0  0  0  0  0  0  0  0  0  0  0  0
   -0.4822   -3.0898   -2.5603 H   0  0  0  0  0  0  0  0  0  0  0  0
   -0.5120   -1.0846   -3.1941 H   0  0  0  0  0  0  0  0  0  0  0  0
   -0.5327    0.6041   -2.6319 H   0  0  0  0  0  0  0  0  0  0  0  0
    0.9719   -0.3185   -5.4401 H   0  0  0  0  0  0  0  0  0  0  0  0
    0.9512    1.3702   -4.8779 H   0  0  0  0  0  0  0  0  0  0  0  0
    2.1791    1.2448   -7.2736 H   0  0  0  0  0  0  0  0  0  0  0  0
    5.1573    2.4056   -8.9752 H   0  0  0  0  0  0  0  0  0  0  0  0
    3.4433    1.9786   -9.1949 H   0  0  0  0  0  0  0  0  0  0  0  0
    2.8156    3.5783   -7.4073 H   0  0  0  0  0  0  0  0  0  0  0  0
    4.5296    4.0053   -7.1876 H   0  0  0  0  0  0  0  0  0  0  0  0
    2.3234    5.8863   -8.0530 H   0  0  0  0  0  0  0  0  0  0  0  0
    4.0373    6.3133   -7.8333 H   0  0  0  0  0  0  0  0  0  0  0  0
    3.2438    6.5954   -9.4014 H   0  0  0  0  0  0  0  0  0  0  0  0
  1  2  1  0  0  0  0
  1 23  1  0  0  0  0
  1 24  1  0  0  0  0
  1 25  1  0  0  0  0
  2  6  2  0  0  0  0
  2  3  1  0  0  0  0
  3  4  2  0  0  0  0
  3  8  1  0  0  0  0
  4  5  1  0  0  0  0
  4  7  1  0  0  0  0
  5  6  1  0  0  0  0
  7 26  1  0  0  0  0
  7 27  1  0  0  0  0
  7 28  1  0  0  0  0
  8  9  1  0  0  0  0
  8 29  1  0  0  0  0
  8 30  1  0  0  0  0
  9 10  1  0  0  0  0
 10 11  1  0  0  0  0
 10 31  1  0  0  0  0
 10 32  1  0  0  0  0
 11 12  2  0  0  0  0
 11 13  1  0  0  0  0
 13 14  1  0  0  0  0
 13 33  1  0  0  0  0
 14 15  1  1  0  0  0
 14 16  1  0  0  0  0
 14 20  1  0  0  0  0
 16 17  1  0  0  0  0
 16 34  1  0  0  0  0
 16 35  1  0  0  0  0
 17 18  1  0  0  0  0
 17 36  1  0  0  0  0
 17 37  1  0  0  0  0
 18 19  1  0  0  0  0
 19 38  1  0  0  0  0
 19 39  1  0  0  0  0
 19 40  1  0  0  0  0
 20 21  2  0  0  0  0
 20 22  1  0  0  0  0
M  END
$$$$
ZINC08648170
 OpenBabel01252620473D

 38 39  0  0  0  0  0  0  0  0999 V2000
   -7.4538    3.9113    0.3678 C   0  0  0  0  0  0  0  0  0  0  0  0
   -8.6091    3.1549    0.4486 C   0  0  0  0  0  0  0  0  0  0  0  0
   -8.5415    1.7754    0.4060 C   0  0  0  0  0  0  0  0  0  0  0  0
   -7.3116    1.1445    0.2813 C   0  0  0  0  0  0  0  0  0  0  0  0
   -6.1459    1.9080    0.1994 C   0  0  0  0  0  0  0  0  0  0  0  0
   -6.2239    3.2922    0.2484 C   0  0  0  0  0  0  0  0  0  0  0  0
   -4.9026    1.2792    0.0741 N   0  0  0  0  0  0  0  0  0  0  0  0
   -3.8141    1.8154    0.6608 C   0  0  0  0  0  0  0  0  0  0  0  0
   -3.8975    2.8830    1.2362 O   0  0  0  0  0  0  0  0  0  0  0  0
   -2.5209    1.1064    0.6046 C   0  0  0  0  0  0  0  0  0  0  0  0
   -1.4360    1.6409    1.1892 C   0  0  0  0  0  0  0  0  0  0  0  0
   -0.1439    0.9325    1.1331 C   0  0  0  0  0  0  0  0  0  0  0  0
   -0.0606   -0.1342    0.5582 O   0  0  0  0  0  0  0  0  0  0  0  0
   -7.2218   -0.6144    0.2273 S   0  0  0  0  0  0  0  0  0  0  0  0
   -8.9075   -1.1271    0.2168 C   0  0  0  0  0  0  0  0  0  0  0  0
   -9.5063   -1.5282   -0.9718 C   0  0  0  0  0  0  0  0  0  0  0  0
  -10.8273   -1.9292   -0.9762 C   0  0  0  0  0  0  0  0  0  0  0  0
  -11.5549   -1.9323    0.2003 C   0  0  0  0  0  0  0  0  0  0  0  0
  -10.9625   -1.5340    1.3847 C   0  0  0  0  0  0  0  0  0  0  0  0
   -9.6398   -1.1370    1.3977 C   0  0  0  0  0  0  0  0  0  0  0  0
   -9.0046   -0.7171    2.6672 N   0  0  0  0  0  4  0  0  0  0  0  0
   -9.6472   -0.7260    3.7018 O   0  0  0  0  0  0  0  0  0  0  0  0
   -7.8393   -0.3627    2.6770 O   0  5  0  0  0  0  0  0  0  0  0  0
  -12.9968   -2.3703    0.1912 C   0  0  0  0  0  0  0  0  0  0  0  0
  -13.3689   -2.7231   -1.1104 F   0  0  0  0  0  0  0  0  0  0  0  0
  -13.1543   -3.4739    1.0365 F   0  0  0  0  0  0  0  0  0  0  0  0
  -13.8059   -1.3206    0.6392 F   0  0  0  0  0  0  0  0  0  0  0  0
   -7.5126    4.9892    0.4024 H   0  0  0  0  0  0  0  0  0  0  0  0
   -9.5671    3.6441    0.5456 H   0  0  0  0  0  0  0  0  0  0  0  0
   -9.4457    1.1882    0.4693 H   0  0  0  0  0  0  0  0  0  0  0  0
   -5.3237    3.8861    0.1898 H   0  0  0  0  0  0  0  0  0  0  0  0
   -4.8239    0.4572   -0.4349 H   0  0  0  0  0  0  0  0  0  0  0  0
   -2.4468    0.1580    0.0934 H   0  0  0  0  0  0  0  0  0  0  0  0
   -1.5101    2.5893    1.7004 H   0  0  0  0  0  0  0  0  0  0  0  0
   -8.9388   -1.5264   -1.8906 H   0  0  0  0  0  0  0  0  0  0  0  0
  -11.2932   -2.2413   -1.8992 H   0  0  0  0  0  0  0  0  0  0  0  0
  -11.5336   -1.5377    2.3013 H   0  0  0  0  0  0  0  0  0  0  0  0
    0.9457    1.4714    1.7149 O   0  0  0  0  0  1  0  0  0  0  0  0
  1  6  2  0  0  0  0
  1  2  1  0  0  0  0
  1 28  1  0  0  0  0
  2  3  2  0  0  0  0
  2 29  1  0  0  0  0
  3  4  1  0  0  0  0
  3 30  1  0  0  0  0
  4  5  2  0  0  0  0
  4 14  1  0  0  0  0
  5  6  1  0  0  0  0
  5  7  1  0  0  0  0
  6 31  1  0  0  0  0
  7  8  1  0  0  0  0
  7 32  1  0  0  0  0
  8  9  2  0  0  0  0
  8 10  1  0  0  0  0
 10 11  2  0  0  0  0
 10 33  1  0  0  0  0
 11 12  1  0  0  0  0
 11 34  1  0  0  0  0
 12 13  2  0  0  0  0
 12 38  1  0  0  0  0
 14 15  1  0  0  0  0
 15 20  2  0  0  0  0
 15 16  1  0  0  0  0
 16 17  2  0  0  0  0
 16 35  1  0  0  0  0
 17 18  1  0  0  0  0
 17 36  1  0  0  0  0
 18 19  2  0  0  0  0
 18 24  1  0  0  0  0
 19 20  1  0  0  0  0
 19 37  1  0  0  0  0
 20 21  1  0  0  0  0
 21 22  2  0  0  0  0
 21 23  1  0  0  0  0
 24 25  1  0  0  0  0
 24 26  1  0  0  0  0
 24 27  1  0  0  0  0
M  CHG  1  23  -1
M  END
$$$$
ZINC66585088
 OpenBabel01252620473D

 43 44  0  0  0  0  0  0  0  0999 V2000
    2.2658   -1.7284    1.8267 C   0  0  0  0  0  0  0  0  0  0  0  0
    1.1877   -1.5006    0.7987 C   0  0  0  0  0  0  0  0  0  0  0  0
    1.3097   -2.0585   -0.4585 C   0  0  0  0  0  0  0  0  0  0  0  0
    0.3215   -1.8530   -1.4094 C   0  0  0  0  0  0  0  0  0  0  0  0
   -0.8021   -1.0763   -1.0872 C   0  0  0  0  0  0  0  0  0  0  0  0
   -0.9122   -0.5181    0.1904 C   0  0  0  0  0  0  0  0  0  0  0  0
    0.0776   -0.7375    1.1230 C   0  0  0  0  0  0  0  0  0  0  0  0
   -0.0655   -0.0385    2.7341 S   0  0  0  0  0  0  0  0  0  0  0  0
   -1.2687    0.7174    2.7435 O   0  0  0  0  0  0  0  0  0  0  0  0
    0.1801   -1.0911    3.6567 O   0  0  0  0  0  0  0  0  0  0  0  0
    1.1751    1.0442    2.9101 N   0  0  0  0  0  0  0  0  0  0  0  0
    1.2133    2.2062    2.1159 C   0  0  0  0  0  0  0  0  0  0  0  0
    0.9829    2.2698    0.7342 C   0  0  0  0  0  0  0  0  0  0  0  0
    1.1047    3.5157    0.3528 N   0  0  0  0  0  0  0  0  0  0  0  0
    1.4169    4.2924    1.4759 N   0  0  0  0  0  0  0  0  0  0  0  0
    1.4737    3.4643    2.5529 C   0  0  0  0  0  0  0  0  0  0  0  0
    1.6384    5.7405    1.4887 C   0  0  0  0  0  0  0  0  0  0  0  0
    2.7131    6.0931    0.4929 C   0  0  0  0  0  0  0  0  0  0  0  0
    3.2420    5.2207   -0.1629 O   0  0  0  0  0  0  0  0  0  0  0  0
    3.0865    7.3779    0.3310 N   0  0  0  0  0  0  0  0  0  0  0  0
    4.1313    7.7207   -0.6370 C   0  0  0  0  0  0  0  0  0  0  0  0
    2.4477    8.4318    1.1232 C   0  0  0  0  0  0  0  0  0  0  0  0
   -1.8577   -0.8503   -2.0874 C   0  0  0  0  0  0  0  0  0  0  0  0
   -2.8355   -0.1726   -1.8024 O   0  0  0  0  0  0  0  0  0  0  0  0
   -1.7573   -1.3401   -3.2040 O   0  0  0  0  0  1  0  0  0  0  0  0
    0.4404   -2.3995   -2.6447 O   0  0  0  0  0  0  0  0  0  0  0  0
    1.9903   -2.5705    2.4616 H   0  0  0  0  0  0  0  0  0  0  0  0
    3.2078   -1.9459    1.3232 H   0  0  0  0  0  0  0  0  0  0  0  0
    2.3791   -0.8337    2.4388 H   0  0  0  0  0  0  0  0  0  0  0  0
    2.1763   -2.6554   -0.7017 H   0  0  0  0  0  0  0  0  0  0  0  0
   -1.7736    0.0808    0.4465 H   0  0  0  0  0  0  0  0  0  0  0  0
    1.8755    0.8778    3.5602 H   0  0  0  0  0  0  0  0  0  0  0  0
    0.7455    1.4331    0.0939 H   0  0  0  0  0  0  0  0  0  0  0  0
    1.6888    3.7547    3.5706 H   0  0  0  0  0  0  0  0  0  0  0  0
    0.7136    6.2518    1.2215 H   0  0  0  0  0  0  0  0  0  0  0  0
    1.9506    6.0516    2.4856 H   0  0  0  0  0  0  0  0  0  0  0  0
    3.6763    7.9214   -1.6070 H   0  0  0  0  0  0  0  0  0  0  0  0
    4.6658    8.6074   -0.2961 H   0  0  0  0  0  0  0  0  0  0  0  0
    4.8292    6.8884   -0.7283 H   0  0  0  0  0  0  0  0  0  0  0  0
    1.7017    7.9887    1.7829 H   0  0  0  0  0  0  0  0  0  0  0  0
    3.2015    8.9452    1.7200 H   0  0  0  0  0  0  0  0  0  0  0  0
    1.9645    9.1455    0.4559 H   0  0  0  0  0  0  0  0  0  0  0  0
    0.0547   -3.2827   -2.7229 H   0  0  0  0  0  0  0  0  0  0  0  0
  1  2  1  0  0  0  0
  1 27  1  0  0  0  0
  1 28  1  0  0  0  0
  1 29  1  0  0  0  0
  2  7  2  0  0  0  0
  2  3  1  0  0  0  0
  3  4  2  0  0  0  0
  3 30  1  0  0  0  0
  4  5  1  0  0  0  0
  4 26  1  0  0  0  0
  5  6  2  0  0  0  0
  5 23  1  0  0  0  0
  6  7  1  0  0  0  0
  6 31  1  0  0  0  0
  7  8  1  0  0  0  0
  8  9  2  0  0  0  0
  8 10  2  0  0  0  0
  8 11  1  0  0  0  0
 11 12  1  0  0  0  0
 11 32  1  0  0  0  0
 12 16  2  0  0  0  0
 12 13  1  0  0  0  0
 13 14  2  0  0  0  0
 13 33  1  0  0  0  0
 14 15  1  0  0  0  0
 15 16  1  0  0  0  0
 15 17  1  0  0  0  0
 16 34  1  0  0  0  0
 17 18  1  0  0  0  0
 17 35  1  0  0  0  0
 17 36  1  0  0  0  0
 18 19  2  0  0  0  0
 18 20  1  0  0  0  0
 20 21  1  0  0  0  0
 20 22  1  0  0  0  0
 21 37  1  0  0  0  0
 21 38  1  0  0  0  0
 21 39  1  0  0  0  0
 22 40  1  0  0  0  0
 22 41  1  0  0  0  0
 22 42  1  0  0  0  0
 23 24  2  0  0  0  0
 23 25  1  0  0  0  0
 26 43  1  0  0  0  0
M  END
$$$$
ZINC67245284
 OpenBabel01252620473D

 42 43  0  0  0  0  0  0  0  0999 V2000
   -0.0187    1.5258    0.0104 C   0  0  0  0  0  0  0  0  0  0  0  0
    0.0021   -0.0041    0.0020 C   0  0  0  0  0  0  0  0  0  0  0  0
   -1.3723   -0.5112    0.0124 N   0  0  0  0  0  0  0  0  0  0  0  0
   -1.6006   -1.8394    0.0075 C   0  0  0  0  0  0  0  0  0  0  0  0
   -0.6682   -2.6149   -0.0056 O   0  0  0  0  0  0  0  0  0  0  0  0
   -3.0144   -2.3611    0.0182 C   0  0  0  0  0  0  0  0  0  0  0  0
   -2.9945   -3.8259    0.0101 N   0  0  0  0  0  0  0  0  0  0  0  0
   -3.6061   -4.6319    0.9033 C   0  0  0  0  0  0  0  0  0  0  0  0
   -3.3498   -5.9121    0.5503 C   0  0  0  0  0  0  0  0  0  0  0  0
   -2.5502   -5.8889   -0.6039 C   0  0  0  0  0  0  0  0  0  0  0  0
   -2.3425   -4.6348   -0.9294 N   0  0  0  0  0  0  0  0  0  0  0  0
   -2.0643   -7.0080   -1.2904 N   0  0  0  0  0  2  0  0  0  0  0  0
   -1.1292   -6.8083   -2.6424 S   0  0  0  0  0  0  0  0  0  0  0  0
   -1.9646   -6.2219   -3.6311 O   0  0  0  0  0  0  0  0  0  0  0  0
    0.0825   -6.2032   -2.2124 O   0  0  0  0  0  0  0  0  0  0  0  0
   -0.7091   -8.4164   -3.2274 C   0  0  0  0  0  0  0  0  0  0  0  0
   -1.1699   -8.8415   -4.4540 C   0  0  0  0  0  0  0  0  0  0  0  0
   -0.8368  -10.1175   -4.9197 C   0  0  0  0  0  0  0  0  0  0  0  0
   -0.0338  -10.9553   -4.1304 C   0  0  0  0  0  0  0  0  0  0  0  0
    0.4204  -10.5093   -2.8983 C   0  0  0  0  0  0  0  0  0  0  0  0
    0.0878   -9.2450   -2.4539 C   0  0  0  0  0  0  0  0  0  0  0  0
    0.5903   -8.7653   -1.1166 C   0  0  0  0  0  0  0  0  0  0  0  0
    0.2959  -12.1949   -4.5702 O   0  0  0  0  0  0  0  0  0  0  0  0
   -1.3256  -10.5789   -6.2288 C   0  0  0  0  0  0  0  0  0  0  0  0
   -2.0257   -9.8456   -6.9135 O   0  0  0  0  0  0  0  0  0  0  0  0
   -1.0319  -11.6958   -6.6324 O   0  0  0  0  0  1  0  0  0  0  0  0
    1.0039    1.9031    0.0027 H   0  0  0  0  0  0  0  0  0  0  0  0
   -0.5459    1.8868   -0.8726 H   0  0  0  0  0  0  0  0  0  0  0  0
   -0.5289    1.8773    0.9072 H   0  0  0  0  0  0  0  0  0  0  0  0
    0.5123   -0.3556   -0.8948 H   0  0  0  0  0  0  0  0  0  0  0  0
    0.5293   -0.3651    0.8851 H   0  0  0  0  0  0  0  0  0  0  0  0
   -2.1181    0.1091    0.0229 H   0  0  0  0  0  0  0  0  0  0  0  0
   -3.5246   -2.0095    0.9150 H   0  0  0  0  0  0  0  0  0  0  0  0
   -3.5416   -2.0000   -0.8649 H   0  0  0  0  0  0  0  0  0  0  0  0
   -4.1953   -4.3115    1.7498 H   0  0  0  0  0  0  0  0  0  0  0  0
   -3.6983   -6.7955    1.0647 H   0  0  0  0  0  0  0  0  0  0  0  0
   -1.7876   -8.1907   -5.0550 H   0  0  0  0  0  0  0  0  0  0  0  0
    1.0386  -11.1504   -2.2873 H   0  0  0  0  0  0  0  0  0  0  0  0
   -0.1273   -9.0335   -0.3413 H   0  0  0  0  0  0  0  0  0  0  0  0
    1.5508   -9.2331   -0.9003 H   0  0  0  0  0  0  0  0  0  0  0  0
    0.7110   -7.6822   -1.1411 H   0  0  0  0  0  0  0  0  0  0  0  0
    1.1147  -12.2251   -5.0839 H   0  0  0  0  0  0  0  0  0  0  0  0
  1  2  1  0  0  0  0
  1 27  1  0  0  0  0
  1 28  1  0  0  0  0
  1 29  1  0  0  0  0
  2  3  1  0  0  0  0
  2 30  1  0  0  0  0
  2 31  1  0  0  0  0
  3  4  1  0  0  0  0
  3 32  1  0  0  0  0
  4  5  2  0  0  0  0
  4  6  1  0  0  0  0
  6  7  1  0  0  0  0
  6 33  1  0  0  0  0
  6 34  1  0  0  0  0
  7 11  1  0  0  0  0
  7  8  1  0  0  0  0
  8  9  2  0  0  0  0
  8 35  1  0  0  0  0
  9 10  1  0  0  0  0
  9 36  1  0  0  0  0
 10 11  2  0  0  0  0
 10 12  1  0  0  0  0
 12 13  1  0  0  0  0
 13 14  2  0  0  0  0
 13 15  2  0  0  0  0
 13 16  1  0  0  0  0
 16 21  2  0  0  0  0
 16 17  1  0  0  0  0
 17 18  2  0  0  0  0
 17 37  1  0  0  0  0
 18 19  1  0  0  0  0
 18 24  1  0  0  0  0
 19 20  2  0  0  0  0
 19 23  1  0  0  0  0
 20 21  1  0  0  0  0
 20 38  1  0  0  0  0
 21 22  1  0  0  0  0
 22 39  1  0  0  0  0
 22 40  1  0  0  0  0
 22 41  1  0  0  0  0
 23 42  1  0  0  0  0
 24 25  2  0  0  0  0
 24 26  1  0  0  0  0
M  END
$$$$
ZINC20219311
 OpenBabel01252620473D

 69 73  0  0  1  0  0  0  0  0999 V2000
   -0.2363   -2.0716   -9.5742 C   0  0  0  0  0  0  0  0  0  0  0  0
   -0.6649   -3.0770   -8.8521 C   0  0  0  0  0  0  0  0  0  0  0  0
   -0.1269   -3.2886   -7.4604 C   0  0  0  0  0  0  0  0  0  0  0  0
   -1.2077   -3.5736   -6.5701 O   0  0  0  0  0  0  0  0  0  0  0  0
   -0.8920   -3.7916   -5.2663 C   0  0  0  0  0  0  0  0  0  0  0  0
    0.4310   -3.7319   -4.8523 C   0  0  0  0  0  0  0  0  0  0  0  0
    0.7493   -3.9534   -3.5267 C   0  0  0  0  0  0  0  0  0  0  0  0
   -0.2499   -4.2292   -2.6113 C   0  0  0  0  0  0  0  0  0  0  0  0
   -1.5683   -4.2944   -3.0222 C   0  0  0  0  0  0  0  0  0  0  0  0
   -1.8918   -4.0736   -4.3472 C   0  0  0  0  0  0  0  0  0  0  0  0
   -2.6541   -4.6004   -2.0230 C   0  0  1  0  0  0  0  0  0  0  0  0
   -3.6265   -4.4084   -2.5001 H   0  0  0  0  0  0  0  0  0  0  0  0
   -2.5248   -6.0261   -1.5397 C   0  0  0  0  0  0  0  0  0  0  0  0
   -2.3274   -5.9687   -0.2022 C   0  0  0  0  0  0  0  0  0  0  0  0
   -2.3143   -4.5544    0.2265 C   0  0  0  0  0  0  0  0  0  0  0  0
   -2.1576   -4.1736    1.3696 O   0  0  0  0  0  0  0  0  0  0  0  0
   -2.5017   -3.7507   -0.8361 N   0  0  0  0  0  0  0  0  0  0  0  0
   -2.5512   -2.2868   -0.8118 C   0  0  0  0  0  0  0  0  0  0  0  0
   -1.1426   -1.7254   -1.0162 C   0  0  0  0  0  0  0  0  0  0  0  0
   -1.1943   -0.1965   -0.9908 C   0  0  0  0  0  0  0  0  0  0  0  0
    0.1581    0.3425   -1.1871 N   0  0  0  0  0  0  0  0  0  0  0  0
    0.1194    1.7958   -1.4055 C   0  0  0  0  0  0  0  0  0  0  0  0
    1.5397    2.3055   -1.6643 C   0  0  0  0  0  0  0  0  0  0  0  0
    2.3780    1.9456   -0.5629 O   0  0  0  0  0  0  0  0  0  0  0  0
    2.4393    0.5372   -0.3221 C   0  0  0  0  0  0  0  0  0  0  0  0
    1.0281    0.0096   -0.0498 C   0  0  0  0  0  0  0  0  0  0  0  0
   -2.1681   -7.0365    0.6134 O   0  5  0  0  0  0  0  0  0  0  0  0
   -2.6037   -7.2384   -2.3608 C   0  0  0  0  0  0  0  0  0  0  0  0
   -1.6244   -7.9489   -2.4925 O   0  0  0  0  0  0  0  0  0  0  0  0
   -3.8708   -7.5970   -3.0277 C   0  0  0  0  0  0  0  0  0  0  0  0
   -4.9834   -6.7578   -2.9168 C   0  0  0  0  0  0  0  0  0  0  0  0
   -6.1628   -7.0932   -3.5430 C   0  0  0  0  0  0  0  0  0  0  0  0
   -6.2561   -8.2700   -4.2781 C   0  0  0  0  0  0  0  0  0  0  0  0
   -5.1518   -9.1122   -4.3902 C   0  0  0  0  0  0  0  0  0  0  0  0
   -3.9636   -8.7793   -3.7670 C   0  0  0  0  0  0  0  0  0  0  0  0
   -5.2248  -10.2633   -5.1133 O   0  0  0  0  0  0  0  0  0  0  0  0
   -6.5364  -10.7500   -5.4175 C   0  0  0  0  0  0  0  0  0  0  0  0
   -7.3826   -9.5712   -5.9170 C   0  0  0  0  0  0  0  0  0  0  0  0
   -7.4334   -8.5849   -4.8806 O   0  0  0  0  0  0  0  0  0  0  0  0
   -0.6290   -1.9172  -10.5900 H   0  0  0  0  0  0  0  0  0  0  0  0
    0.5163   -1.3818   -9.1647 H   0  0  0  0  0  0  0  0  0  0  0  0
   -1.4175   -3.7668   -9.2616 H   0  0  0  0  0  0  0  0  0  0  0  0
    0.5776   -4.1334   -7.4642 H   0  0  0  0  0  0  0  0  0  0  0  0
    0.3934   -2.3789   -7.1261 H   0  0  0  0  0  0  0  0  0  0  0  0
    1.2113   -3.5121   -5.5660 H   0  0  0  0  0  0  0  0  0  0  0  0
    1.7788   -3.9067   -3.2039 H   0  0  0  0  0  0  0  0  0  0  0  0
    0.0004   -4.3977   -1.5743 H   0  0  0  0  0  0  0  0  0  0  0  0
   -2.9223   -4.1210   -4.6670 H   0  0  0  0  0  0  0  0  0  0  0  0
   -3.2091   -1.9288   -1.6174 H   0  0  0  0  0  0  0  0  0  0  0  0
   -2.9432   -1.9492    0.1590 H   0  0  0  0  0  0  0  0  0  0  0  0
   -0.4847   -2.0835   -0.2106 H   0  0  0  0  0  0  0  0  0  0  0  0
   -0.7506   -2.0630   -1.9870 H   0  0  0  0  0  0  0  0  0  0  0  0
   -1.8522    0.1615   -1.7964 H   0  0  0  0  0  0  0  0  0  0  0  0
   -1.5862    0.1411   -0.0200 H   0  0  0  0  0  0  0  0  0  0  0  0
   -0.5165    2.0191   -2.2748 H   0  0  0  0  0  0  0  0  0  0  0  0
   -0.2927    2.2898   -0.5132 H   0  0  0  0  0  0  0  0  0  0  0  0
    1.9294    1.8521   -2.5877 H   0  0  0  0  0  0  0  0  0  0  0  0
    1.5225    3.4001   -1.7722 H   0  0  0  0  0  0  0  0  0  0  0  0
    2.8576    0.0321   -1.2052 H   0  0  0  0  0  0  0  0  0  0  0  0
    3.0805    0.3419    0.5501 H   0  0  0  0  0  0  0  0  0  0  0  0
    0.6307    0.4748    0.8643 H   0  0  0  0  0  0  0  0  0  0  0  0
    1.0613   -1.0823    0.0792 H   0  0  0  0  0  0  0  0  0  0  0  0
   -4.9167   -5.8450   -2.3433 H   0  0  0  0  0  0  0  0  0  0  0  0
   -7.0203   -6.4420   -3.4591 H   0  0  0  0  0  0  0  0  0  0  0  0
   -3.1078   -9.4327   -3.8511 H   0  0  0  0  0  0  0  0  0  0  0  0
   -6.4689  -11.5234   -6.1968 H   0  0  0  0  0  0  0  0  0  0  0  0
   -6.9869  -11.1810   -4.5113 H   0  0  0  0  0  0  0  0  0  0  0  0
   -6.9217   -9.1460   -6.8208 H   0  0  0  0  0  0  0  0  0  0  0  0
   -8.3976   -9.9228   -6.1538 H   0  0  0  0  0  0  0  0  0  0  0  0
  1  2  2  0  0  0  0
  1 40  1  0  0  0  0
  1 41  1  0  0  0  0
  2  3  1  0  0  0  0
  2 42  1  0  0  0  0
  3  4  1  0  0  0  0
  3 43  1  0  0  0  0
  3 44  1  0  0  0  0
  4  5  1  0  0  0  0
  5 10  2  0  0  0  0
  5  6  1  0  0  0  0
  6  7  2  0  0  0  0
  6 45  1  0  0  0  0
  7  8  1  0  0  0  0
  7 46  1  0  0  0  0
  8  9  2  0  0  0  0
  8 47  1  0  0  0  0
  9 10  1  0  0  0  0
  9 11  1  0  0  0  0
 10 48  1  0  0  0  0
 11 12  1  6  0  0  0
 11 17  1  0  0  0  0
 11 13  1  0  0  0  0
 13 14  2  0  0  0  0
 13 28  1  0  0  0  0
 14 15  1  0  0  0  0
 14 27  1  0  0  0  0
 15 16  2  0  0  0  0
 15 17  1  0  0  0  0
 17 18  1  0  0  0  0
 18 19  1  0  0  0  0
 18 49  1  0  0  0  0
 18 50  1  0  0  0  0
 19 20  1  0  0  0  0
 19 51  1  0  0  0  0
 19 52  1  0  0  0  0
 20 21  1  0  0  0  0
 20 53  1  0  0  0  0
 20 54  1  0  0  0  0
 21 26  1  0  0  0  0
 21 22  1  0  0  0  0
 22 23  1  0  0  0  0
 22 55  1  0  0  0  0
 22 56  1  0  0  0  0
 23 24  1  0  0  0  0
 23 57  1  0  0  0  0
 23 58  1  0  0  0  0
 24 25  1  0  0  0  0
 25 26  1  0  0  0  0
 25 59  1  0  0  0  0
 25 60  1  0  0  0  0
 26 61  1  0  0  0  0
 26 62  1  0  0  0  0
 28 29  2  0  0  0  0
 28 30  1  0  0  0  0
 30 35  2  0  0  0  0
 30 31  1  0  0  0  0
 31 32  2  0  0  0  0
 31 63  1  0  0  0  0
 32 33  1  0  0  0  0
 32 64  1  0  0  0  0
 33 39  1  0  0  0  0
 33 34  2  0  0  0  0
 34 35  1  0  0  0  0
 34 36  1  0  0  0  0
 35 65  1  0  0  0  0
 36 37  1  0  0  0  0
 37 38  1  0  0  0  0
 37 66  1  0  0  0  0
 37 67  1  0  0  0  0
 38 39  1  0  0  0  0
 38 68  1  0  0  0  0
 38 69  1  0  0  0  0
M  CHG  1  27  -1
M  END
$$$$
ZINC13051161
 OpenBabel01252620473D

 61 63  0  0  1  0  0  0  0  0999 V2000
    0.7194    4.4651    2.1837 C   0  0  0  0  0  0  0  0  0  0  0  0
    0.1590    4.2038    0.7842 C   0  0  0  0  0  0  0  0  0  0  0  0
    1.1553    3.4859   -0.0146 N   0  0  0  0  0  0  0  0  0  0  0  0
    2.1314    4.2327   -0.8118 C   0  0  0  0  0  0  0  0  0  0  0  0
    1.5640    4.4814   -2.2108 C   0  0  0  0  0  0  0  0  0  0  0  0
    1.1747    2.0871   -0.0160 C   0  0  0  0  0  0  0  0  0  0  0  0
    2.1192    1.4063   -0.7732 C   0  0  0  0  0  0  0  0  0  0  0  0
    2.1384    0.0258   -0.7742 C   0  0  0  0  0  0  0  0  0  0  0  0
    1.2132   -0.6820   -0.0185 C   0  0  0  0  0  0  0  0  0  0  0  0
    0.2685   -0.0016    0.7382 C   0  0  0  0  0  0  0  0  0  0  0  0
    0.2493    1.3789    0.7398 C   0  0  0  0  0  0  0  0  0  0  0  0
    1.2326   -2.0833   -0.0200 N   0  0  0  0  0  0  0  0  0  0  0  0
    2.4032   -2.7410   -0.1360 C   0  0  0  0  0  0  0  0  0  0  0  0
    3.4475   -2.1239   -0.1428 O   0  0  0  0  0  0  0  0  0  0  0  0
    2.4149   -4.2431   -0.2572 C   0  0  0  0  0  0  0  0  0  0  0  0
    4.1235   -4.8239   -0.3961 S   0  0  0  0  0  0  0  0  0  0  0  0
    3.8474   -6.5597   -0.5205 C   0  0  0  0  0  0  0  0  0  0  0  0
    2.6138   -6.9998   -0.4892 N   0  0  0  0  0  0  0  0  0  0  0  0
    2.3299   -8.3204   -0.5804 C   0  0  0  0  0  0  0  0  0  0  0  0
    1.0129   -8.7874   -0.5473 C   0  0  0  0  0  0  0  0  0  0  0  0
    0.7697  -10.1516   -0.6446 C   0  0  0  0  0  0  0  0  0  0  0  0
    1.8323  -11.0553   -0.7749 C   0  0  0  0  0  0  0  0  0  0  0  0
    3.1227  -10.6107   -0.8084 C   0  0  0  0  0  0  0  0  0  0  0  0
    3.3900   -9.2454   -0.7123 C   0  0  0  0  0  0  0  0  0  0  0  0
    4.7654   -8.7230   -0.7447 C   0  0  0  0  0  0  0  0  0  0  0  0
    5.7208   -9.4687   -0.8561 O   0  0  0  0  0  0  0  0  0  0  0  0
    4.9289   -7.3833   -0.6506 N   0  0  0  0  0  0  0  0  0  0  0  0
    6.2775   -6.8119   -0.6834 C   0  0  0  0  0  0  0  0  0  0  0  0
    6.8311   -6.7292    0.7405 C   0  0  2  0  0  0  0  0  0  0  0  0
    6.1373   -6.1700    1.3682 H   0  0  0  0  0  0  0  0  0  0  0  0
    8.1863   -6.0193    0.7204 C   0  0  0  0  0  0  0  0  0  0  0  0
    6.9921   -8.0482    1.2663 O   0  0  0  0  0  0  0  0  0  0  0  0
   -0.6216  -10.6539   -0.6108 C   0  0  0  0  0  0  0  0  0  0  0  0
   -1.5460   -9.8744   -0.4983 O   0  0  0  0  0  0  0  0  0  0  0  0
    0.9544    3.5154    2.6642 H   0  0  0  0  0  0  0  0  0  0  0  0
    1.6249    5.0669    2.1060 H   0  0  0  0  0  0  0  0  0  0  0  0
   -0.0220    4.9993    2.7780 H   0  0  0  0  0  0  0  0  0  0  0  0
   -0.0760    5.1536    0.3037 H   0  0  0  0  0  0  0  0  0  0  0  0
   -0.7466    3.6021    0.8619 H   0  0  0  0  0  0  0  0  0  0  0  0
    2.3401    5.1876   -0.3294 H   0  0  0  0  0  0  0  0  0  0  0  0
    3.0532    3.6564   -0.8907 H   0  0  0  0  0  0  0  0  0  0  0  0
    0.6422    5.0577   -2.1318 H   0  0  0  0  0  0  0  0  0  0  0  0
    2.2903    5.0371   -2.8039 H   0  0  0  0  0  0  0  0  0  0  0  0
    1.3553    3.5265   -2.6932 H   0  0  0  0  0  0  0  0  0  0  0  0
    2.8414    1.9568   -1.3578 H   0  0  0  0  0  0  0  0  0  0  0  0
    2.8729   -0.5036   -1.3630 H   0  0  0  0  0  0  0  0  0  0  0  0
   -0.4515   -0.5523    1.3253 H   0  0  0  0  0  0  0  0  0  0  0  0
   -0.4857    1.9081    1.3281 H   0  0  0  0  0  0  0  0  0  0  0  0
    0.4034   -2.5799    0.0625 H   0  0  0  0  0  0  0  0  0  0  0  0
    1.9524   -4.6825    0.6266 H   0  0  0  0  0  0  0  0  0  0  0  0
    1.8568   -4.5403   -1.1451 H   0  0  0  0  0  0  0  0  0  0  0  0
    0.1913   -8.0935   -0.4472 H   0  0  0  0  0  0  0  0  0  0  0  0
    1.6288  -12.1134   -0.8492 H   0  0  0  0  0  0  0  0  0  0  0  0
    3.9352  -11.3151   -0.9091 H   0  0  0  0  0  0  0  0  0  0  0  0
    6.9258   -7.4451   -1.2891 H   0  0  0  0  0  0  0  0  0  0  0  0
    6.2382   -5.8124   -1.1166 H   0  0  0  0  0  0  0  0  0  0  0  0
    8.0635   -5.0132    0.3193 H   0  0  0  0  0  0  0  0  0  0  0  0
    8.5807   -5.9604    1.7348 H   0  0  0  0  0  0  0  0  0  0  0  0
    8.8801   -6.5785    0.0927 H   0  0  0  0  0  0  0  0  0  0  0  0
    7.5976   -8.6036    0.7565 H   0  0  0  0  0  0  0  0  0  0  0  0
   -0.8629  -11.9756   -0.7047 O   0  0  0  0  0  1  0  0  0  0  0  0
  1  2  1  0  0  0  0
  1 35  1  0  0  0  0
  1 36  1  0  0  0  0
  1 37  1  0  0  0  0
  2  3  1  0  0  0  0
  2 38  1  0  0  0  0
  2 39  1  0  0  0  0
  3  4  1  0  0  0  0
  3  6  1  0  0  0  0
  4  5  1  0  0  0  0
  4 40  1  0  0  0  0
  4 41  1  0  0  0  0
  5 42  1  0  0  0  0
  5 43  1  0  0  0  0
  5 44  1  0  0  0  0
  6 11  2  0  0  0  0
  6  7  1  0  0  0  0
  7  8  2  0  0  0  0
  7 45  1  0  0  0  0
  8  9  1  0  0  0  0
  8 46  1  0  0  0  0
  9 10  2  0  0  0  0
  9 12  1  0  0  0  0
 10 11  1  0  0  0  0
 10 47  1  0  0  0  0
 11 48  1  0  0  0  0
 12 13  1  0  0  0  0
 12 49  1  0  0  0  0
 13 14  2  0  0  0  0
 13 15  1  0  0  0  0
 15 16  1  0  0  0  0
 15 50  1  0  0  0  0
 15 51  1  0  0  0  0
 16 17  1  0  0  0  0
 17 27  1  0  0  0  0
 17 18  2  0  0  0  0
 18 19  1  0  0  0  0
 19 24  2  0  0  0  0
 19 20  1  0  0  0  0
 20 21  2  0  0  0  0
 20 52  1  0  0  0  0
 21 22  1  0  0  0  0
 21 33  1  0  0  0  0
 22 23  2  0  0  0  0
 22 53  1  0  0  0  0
 23 24  1  0  0  0  0
 23 54  1  0  0  0  0
 24 25  1  0  0  0  0
 25 26  2  0  0  0  0
 25 27  1  0  0  0  0
 27 28  1  0  0  0  0
 28 29  1  0  0  0  0
 28 55  1  0  0  0  0
 28 56  1  0  0  0  0
 29 30  1  1  0  0  0
 29 31  1  0  0  0  0
 29 32  1  0  0  0  0
 31 57  1  0  0  0  0
 31 58  1  0  0  0  0
 31 59  1  0  0  0  0
 32 60  1  0  0  0  0
 33 34  2  0  0  0  0
 33 61  1  0  0  0  0
M  END
$$$$
ZINC28324453
 OpenBabel01252620473D

 23 24  0  0  0  0  0  0  0  0999 V2000
    1.7539    3.2600    0.0018 C   0  0  0  0  0  0  0  0  0  0  0  0
    1.2995    1.8231   -0.0006 C   0  0  0  0  0  0  0  0  0  0  0  0
   -0.0167    1.3805    0.0096 C   0  0  0  0  0  0  0  0  0  0  0  0
    0.0021   -0.0041    0.0020 C   0  0  0  0  0  0  0  0  0  0  0  0
   -1.0334   -0.9752    0.0063 C   0  0  0  0  0  0  0  0  0  0  0  0
   -0.7034   -2.2818   -0.0038 C   0  0  0  0  0  0  0  0  0  0  0  0
    0.6190   -2.6548   -0.0185 N   0  0  0  0  0  0  0  0  0  0  0  0
    1.5990   -1.7339   -0.0229 C   0  0  0  0  0  0  0  0  0  0  0  0
    2.7603   -2.0944   -0.0359 O   0  5  0  0  0  0  0  0  0  0  0  0
    1.3123   -0.4177   -0.0127 N   0  0  0  0  0  0  0  0  0  0  0  0
    2.1194    0.7072   -0.0144 C   0  0  0  0  0  0  0  0  0  0  0  0
    3.5346    0.7152   -0.0285 C   0  0  0  0  0  0  0  0  0  0  0  0
    4.1372    1.7728   -0.0285 O   0  0  0  0  0  0  0  0  0  0  0  0
    4.2162   -0.4500   -0.0421 O   0  0  0  0  0  1  0  0  0  0  0  0
   -1.7836   -3.3326    0.0004 C   0  0  0  0  0  0  0  0  0  0  0  0
    0.8757    3.9222    0.0140 H   0  0  0  0  0  0  0  0  0  0  0  0
    2.3497    3.4576   -0.9015 H   0  0  0  0  0  0  0  0  0  0  0  0
    2.3680    3.4489    0.8947 H   0  0  0  0  0  0  0  0  0  0  0  0
   -0.8979    2.0048    0.0174 H   0  0  0  0  0  0  0  0  0  0  0  0
   -2.0697   -0.6716    0.0181 H   0  0  0  0  0  0  0  0  0  0  0  0
   -1.3233   -4.3316   -0.0092 H   0  0  0  0  0  0  0  0  0  0  0  0
   -2.4162   -3.2117   -0.8914 H   0  0  0  0  0  0  0  0  0  0  0  0
   -2.3997   -3.2214    0.9048 H   0  0  0  0  0  0  0  0  0  0  0  0
  1  2  1  0  0  0  0
  1 16  1  0  0  0  0
  1 17  1  0  0  0  0
  1 18  1  0  0  0  0
  2 11  2  0  0  0  0
  2  3  1  0  0  0  0
  3  4  2  0  0  0  0
  3 19  1  0  0  0  0
  4 10  1  0  0  0  0
  4  5  1  0  0  0  0
  5  6  2  0  0  0  0
  5 20  1  0  0  0  0
  6  7  1  0  0  0  0
  6 15  1  0  0  0  0
  7  8  2  0  0  0  0
  8  9  1  0  0  0  0
  8 10  1  0  0  0  0
 10 11  1  0  0  0  0
 11 12  1  0  0  0  0
 12 13  2  0  0  0  0
 12 14  1  0  0  0  0
 15 21  1  0  0  0  0
 15 22  1  0  0  0  0
 15 23  1  0  0  0  0
M  CHG  1   9  -1
M  END
$$$$
ZINC40046732
 OpenBabel01252620473D

 45 47  0  0  1  0  0  0  0  0999 V2000
    0.4626   -1.7547    4.5402 C   0  0  0  0  0  0  0  0  0  0  0  0
    0.3496   -2.2906    3.1362 C   0  0  0  0  0  0  0  0  0  0  0  0
   -0.7954   -2.6921    2.5386 C   0  0  0  0  0  0  0  0  0  0  0  0
   -0.4606   -3.1166    1.2446 C   0  0  0  0  0  0  0  0  0  0  0  0
    0.9014   -2.9486    1.1165 C   0  0  0  0  0  0  0  0  0  0  0  0
    1.3658   -2.4407    2.2770 O   0  0  0  0  0  0  0  0  0  0  0  0
    1.7019   -3.2608   -0.0711 C   0  0  0  0  0  0  0  0  0  0  0  0
    1.1839   -3.8088   -1.0281 O   0  0  0  0  0  0  0  0  0  0  0  0
    3.1273   -2.9132   -0.1073 C   0  0  0  0  0  0  0  0  0  0  0  0
    4.1660   -3.7754   -0.1943 C   0  0  0  0  0  0  0  0  0  0  0  0
    5.4308   -3.0134   -0.2018 C   0  0  0  0  0  0  0  0  0  0  0  0
    6.5401   -3.5044   -0.2714 O   0  0  0  0  0  0  0  0  0  0  0  0
    5.1737   -1.6953   -0.1203 N   0  0  0  0  0  0  0  0  0  0  0  0
    3.7174   -1.5230   -0.0612 C   0  0  1  0  0  0  0  0  0  0  0  0
    3.4382   -1.0279    0.8689 H   0  0  0  0  0  0  0  0  0  0  0  0
    3.2392   -0.7176   -1.2418 C   0  0  0  0  0  0  0  0  0  0  0  0
    3.7101   -1.0032   -2.5097 C   0  0  0  0  0  0  0  0  0  0  0  0
    3.2715   -0.2645   -3.5926 C   0  0  0  0  0  0  0  0  0  0  0  0
    2.3616    0.7597   -3.4076 C   0  0  0  0  0  0  0  0  0  0  0  0
    1.8900    1.0447   -2.1399 C   0  0  0  0  0  0  0  0  0  0  0  0
    2.3254    0.3031   -1.0576 C   0  0  0  0  0  0  0  0  0  0  0  0
    1.8927    1.5514   -4.5671 N   0  0  0  0  0  4  0  0  0  0  0  0
    2.3054    1.3023   -5.6758 O   0  0  0  0  0  0  0  0  0  0  0  0
    1.0969    2.4471   -4.4053 O   0  5  0  0  0  0  0  0  0  0  0  0
    6.1706   -0.6219   -0.1005 C   0  0  0  0  0  0  0  0  0  0  0  0
    6.4615   -0.1696   -1.5329 C   0  0  0  0  0  0  0  0  0  0  0  0
    7.5025    0.9514   -1.5123 C   0  0  0  0  0  0  0  0  0  0  0  0
    7.7742    1.3739   -2.8501 O   0  0  0  0  0  0  0  0  0  0  0  0
    4.0623   -5.1235   -0.2632 O   0  5  0  0  0  0  0  0  0  0  0  0
    1.5027   -1.5068    4.7518 H   0  0  0  0  0  0  0  0  0  0  0  0
   -0.1515   -0.8594    4.6378 H   0  0  0  0  0  0  0  0  0  0  0  0
    0.1182   -2.5103    5.2463 H   0  0  0  0  0  0  0  0  0  0  0  0
   -1.7827   -2.6870    2.9761 H   0  0  0  0  0  0  0  0  0  0  0  0
   -1.1374   -3.5003    0.4955 H   0  0  0  0  0  0  0  0  0  0  0  0
    4.4210   -1.8034   -2.6541 H   0  0  0  0  0  0  0  0  0  0  0  0
    3.6399   -0.4871   -4.5830 H   0  0  0  0  0  0  0  0  0  0  0  0
    1.1794    1.8451   -1.9953 H   0  0  0  0  0  0  0  0  0  0  0  0
    1.9541    0.5234   -0.0676 H   0  0  0  0  0  0  0  0  0  0  0  0
    5.7865    0.2201    0.4755 H   0  0  0  0  0  0  0  0  0  0  0  0
    7.0891   -0.9874    0.3587 H   0  0  0  0  0  0  0  0  0  0  0  0
    6.8455   -1.0115   -2.1089 H   0  0  0  0  0  0  0  0  0  0  0  0
    5.5430    0.1960   -1.9921 H   0  0  0  0  0  0  0  0  0  0  0  0
    7.1185    1.7934   -0.9363 H   0  0  0  0  0  0  0  0  0  0  0  0
    8.4210    0.5859   -1.0531 H   0  0  0  0  0  0  0  0  0  0  0  0
    8.4271    2.0843   -2.9133 H   0  0  0  0  0  0  0  0  0  0  0  0
  1  2  1  0  0  0  0
  1 30  1  0  0  0  0
  1 31  1  0  0  0  0
  1 32  1  0  0  0  0
  2  6  1  0  0  0  0
  2  3  2  0  0  0  0
  3  4  1  0  0  0  0
  3 33  1  0  0  0  0
  4  5  2  0  0  0  0
  4 34  1  0  0  0  0
  5  6  1  0  0  0  0
  5  7  1  0  0  0  0
  7  8  2  0  0  0  0
  7  9  1  0  0  0  0
  9 14  1  0  0  0  0
  9 10  2  0  0  0  0
 10 11  1  0  0  0  0
 10 29  1  0  0  0  0
 11 12  2  0  0  0  0
 11 13  1  0  0  0  0
 13 14  1  0  0  0  0
 13 25  1  0  0  0  0
 14 15  1  1  0  0  0
 14 16  1  0  0  0  0
 16 21  2  0  0  0  0
 16 17  1  0  0  0  0
 17 18  2  0  0  0  0
 17 35  1  0  0  0  0
 18 19  1  0  0  0  0
 18 36  1  0  0  0  0
 19 20  2  0  0  0  0
 19 22  1  0  0  0  0
 20 21  1  0  0  0  0
 20 37  1  0  0  0  0
 21 38  1  0  0  0  0
 22 23  2  0  0  0  0
 22 24  1  0  0  0  0
 25 26  1  0  0  0  0
 25 39  1  0  0  0  0
 25 40  1  0  0  0  0
 26 27  1  0  0  0  0
 26 41  1  0  0  0  0
 26 42  1  0  0  0  0
 27 28  1  0  0  0  0
 27 43  1  0  0  0  0
 27 44  1  0  0  0  0
 28 45  1  0  0  0  0
M  CHG  2  24  -1  29  -1
M  END
$$$$
ZINC63858206
 OpenBabel01252620473D

 47 49  0  0  0  0  0  0  0  0999 V2000
   -0.6891    1.4162   -0.4254 C   0  0  0  0  0  0  0  0  0  0  0  0
   -0.6137   -0.1119   -0.4100 C   0  0  0  0  0  0  0  0  0  0  0  0
    0.3143   -0.5880   -1.5294 C   0  0  0  0  0  0  0  0  0  0  0  0
    0.3866   -2.0511   -1.5147 N   0  0  0  0  0  0  0  0  0  0  0  0
    1.1624   -2.7074   -2.4320 C   0  0  0  0  0  0  0  0  0  0  0  0
    1.2311   -4.0982   -2.4180 C   0  0  0  0  0  0  0  0  0  0  0  0
    2.0301   -4.7742   -3.3629 C   0  0  0  0  0  0  0  0  0  0  0  0
    2.5767   -4.1504   -4.2570 O   0  0  0  0  0  0  0  0  0  0  0  0
    2.2054   -6.2390   -3.2697 C   0  0  0  0  0  0  0  0  0  0  0  0
    2.3734   -7.0029   -4.4270 C   0  0  0  0  0  0  0  0  0  0  0  0
    2.5404   -8.3650   -4.3388 C   0  0  0  0  0  0  0  0  0  0  0  0
    2.5428   -8.9975   -3.0949 C   0  0  0  0  0  0  0  0  0  0  0  0
    2.3671   -8.2322   -1.9461 C   0  0  0  0  0  0  0  0  0  0  0  0
    2.2100   -6.8698   -2.0228 C   0  0  0  0  0  0  0  0  0  0  0  0
    2.3907   -9.1878   -0.7685 C   0  0  0  0  0  0  0  0  0  0  0  0
    2.2003  -10.5565   -1.4639 C   0  0  0  0  0  0  0  0  0  0  0  0
    2.7024  -10.3134   -2.7888 O   0  0  0  0  0  0  0  0  0  0  0  0
    0.5190   -4.8130   -1.4819 N   0  0  0  0  0  0  0  0  0  0  0  0
   -0.5566   -5.4881   -1.8643 C   0  0  0  0  0  3  0  0  0  0  0  0
   -1.2950   -6.2167   -0.9470 C   0  0  0  0  0  0  0  0  0  0  0  0
   -0.8938   -6.2331    0.3865 C   0  0  0  0  0  0  0  0  0  0  0  0
    0.2362   -5.5151    0.7468 C   0  0  0  0  0  0  0  0  0  0  0  0
    0.9282   -4.8143   -0.2202 C   0  0  0  0  0  0  0  0  0  0  0  0
    2.1607   -4.0365    0.1632 C   0  0  0  0  0  0  0  0  0  0  0  0
   -2.3972   -6.9064   -1.3428 O   0  5  0  0  0  0  0  0  0  0  0  0
    2.0740   -1.7923   -3.6304 S   0  0  0  0  0  1  0  0  0  0  0  0
    0.3073    1.8307   -0.2723 H   0  0  0  0  0  0  0  0  0  0  0  0
   -1.0782    1.7511   -1.3870 H   0  0  0  0  0  0  0  0  0  0  0  0
   -1.3503    1.7554    0.3720 H   0  0  0  0  0  0  0  0  0  0  0  0
   -0.2246   -0.4468    0.5515 H   0  0  0  0  0  0  0  0  0  0  0  0
   -1.6101   -0.5264   -0.5632 H   0  0  0  0  0  0  0  0  0  0  0  0
   -0.0747   -0.2531   -2.4910 H   0  0  0  0  0  0  0  0  0  0  0  0
    1.3107   -0.1734   -1.3763 H   0  0  0  0  0  0  0  0  0  0  0  0
   -0.1153   -2.5549   -0.8549 H   0  0  0  0  0  0  0  0  0  0  0  0
    2.3717   -6.5223   -5.3942 H   0  0  0  0  0  0  0  0  0  0  0  0
    2.6703   -8.9490   -5.2379 H   0  0  0  0  0  0  0  0  0  0  0  0
    2.0857   -6.2878   -1.1215 H   0  0  0  0  0  0  0  0  0  0  0  0
    3.3486   -9.1440   -0.2504 H   0  0  0  0  0  0  0  0  0  0  0  0
    1.5688   -8.9815   -0.0829 H   0  0  0  0  0  0  0  0  0  0  0  0
    2.7862  -11.3281   -0.9644 H   0  0  0  0  0  0  0  0  0  0  0  0
    1.1457  -10.8305   -1.4949 H   0  0  0  0  0  0  0  0  0  0  0  0
   -0.8596   -5.4691   -2.9007 H   0  0  0  0  0  0  0  0  0  0  0  0
   -1.4508   -6.7924    1.1236 H   0  0  0  0  0  0  0  0  0  0  0  0
    0.5735   -5.5071    1.7728 H   0  0  0  0  0  0  0  0  0  0  0  0
    1.8774   -3.0224    0.4447 H   0  0  0  0  0  0  0  0  0  0  0  0
    2.6505   -4.5242    1.0060 H   0  0  0  0  0  0  0  0  0  0  0  0
    2.8457   -4.0005   -0.6839 H   0  0  0  0  0  0  0  0  0  0  0  0
  1  2  1  0  0  0  0
  1 27  1  0  0  0  0
  1 28  1  0  0  0  0
  1 29  1  0  0  0  0
  2  3  1  0  0  0  0
  2 30  1  0  0  0  0
  2 31  1  0  0  0  0
  3  4  1  0  0  0  0
  3 32  1  0  0  0  0
  3 33  1  0  0  0  0
  4  5  1  0  0  0  0
  4 34  1  0  0  0  0
  5  6  2  0  0  0  0
  5 26  1  0  0  0  0
  6  7  1  0  0  0  0
  6 18  1  0  0  0  0
  7  8  2  0  0  0  0
  7  9  1  0  0  0  0
  9 14  2  0  0  0  0
  9 10  1  0  0  0  0
 10 11  2  0  0  0  0
 10 35  1  0  0  0  0
 11 12  1  0  0  0  0
 11 36  1  0  0  0  0
 12 17  1  0  0  0  0
 12 13  2  0  0  0  0
 13 14  1  0  0  0  0
 13 15  1  0  0  0  0
 14 37  1  0  0  0  0
 15 16  1  0  0  0  0
 15 38  1  0  0  0  0
 15 39  1  0  0  0  0
 16 17  1  0  0  0  0
 16 40  1  0  0  0  0
 16 41  1  0  0  0  0
 18 23  1  0  0  0  0
 18 19  1  0  0  0  0
 19 20  1  0  0  0  0
 19 42  1  0  0  0  0
 20 21  2  0  0  0  0
 20 25  1  0  0  0  0
 21 22  1  0  0  0  0
 21 43  1  0  0  0  0
 22 23  2  0  0  0  0
 22 44  1  0  0  0  0
 23 24  1  0  0  0  0
 24 45  1  0  0  0  0
 24 46  1  0  0  0  0
 24 47  1  0  0  0  0
M  CHG  1  25  -1
M  END
$$$$
ZINC54050200
 OpenBabel01252620473D

 34 35  0  0  0  0  0  0  0  0999 V2000
   -0.0167    1.3803    0.0096 C   0  0  0  0  0  0  0  0  0  0  0  0
    1.1664    2.0955    0.0022 C   0  0  0  0  0  0  0  0  0  0  0  0
    2.3789    1.4312   -0.0134 C   0  0  0  0  0  0  0  0  0  0  0  0
    2.4044    0.0312   -0.0211 C   0  0  0  0  0  0  0  0  0  0  0  0
    1.2022   -0.6819   -0.0130 C   0  0  0  0  0  0  0  0  0  0  0  0
    0.0021   -0.0041    0.0020 C   0  0  0  0  0  0  0  0  0  0  0  0
   -1.5136   -0.9026    0.0116 S   0  0  0  0  0  0  0  0  0  0  0  0
   -1.1902   -2.1528    0.6047 O   0  0  0  0  0  0  0  0  0  0  0  0
   -2.4493   -0.0287    0.6281 O   0  0  0  0  0  0  0  0  0  0  0  0
   -1.9312   -1.1309   -1.7388 C   0  0  0  0  0  0  0  0  0  0  0  0
   -3.2443   -1.9080   -1.8527 C   0  0  0  0  0  0  0  0  0  0  0  0
   -3.5913   -2.0977   -3.3069 C   0  0  0  0  0  0  0  0  0  0  0  0
   -2.8603   -1.6549   -4.1675 O   0  0  0  0  0  0  0  0  0  0  0  0
   -4.7138   -2.7593   -3.6511 N   0  0  0  0  0  0  0  0  0  0  0  0
   -5.0512   -2.9437   -5.0647 C   0  0  0  0  0  0  0  0  0  0  0  0
   -6.5055   -2.7128   -5.4799 C   0  0  0  0  0  0  0  0  0  0  0  0
   -5.9408   -4.1339   -5.4293 C   0  0  0  0  0  0  0  0  0  0  0  0
    3.6913   -0.6862   -0.0382 C   0  0  0  0  0  0  0  0  0  0  0  0
    3.7096   -1.9092   -0.0449 O   0  0  0  0  0  0  0  0  0  0  0  0
    4.7412   -0.0588   -0.0456 O   0  0  0  0  0  1  0  0  0  0  0  0
    3.5349    2.1303   -0.0216 F   0  0  0  0  0  0  0  0  0  0  0  0
   -0.9609    1.9045    0.0260 H   0  0  0  0  0  0  0  0  0  0  0  0
    1.1435    3.1752    0.0082 H   0  0  0  0  0  0  0  0  0  0  0  0
    1.2137   -1.7619   -0.0192 H   0  0  0  0  0  0  0  0  0  0  0  0
   -2.0428   -0.1572   -2.2157 H   0  0  0  0  0  0  0  0  0  0  0  0
   -1.1352   -1.6883   -2.2326 H   0  0  0  0  0  0  0  0  0  0  0  0
   -3.1327   -2.8818   -1.3758 H   0  0  0  0  0  0  0  0  0  0  0  0
   -4.0403   -1.3507   -1.3589 H   0  0  0  0  0  0  0  0  0  0  0  0
   -5.2985   -3.1134   -2.9628 H   0  0  0  0  0  0  0  0  0  0  0  0
   -4.2738   -2.6604   -5.7744 H   0  0  0  0  0  0  0  0  0  0  0  0
   -7.2114   -2.4237   -4.7013 H   0  0  0  0  0  0  0  0  0  0  0  0
   -6.6852   -2.2773   -6.4629 H   0  0  0  0  0  0  0  0  0  0  0  0
   -5.7490   -4.6333   -6.3790 H   0  0  0  0  0  0  0  0  0  0  0  0
   -6.2752   -4.7797   -4.6174 H   0  0  0  0  0  0  0  0  0  0  0  0
  1  6  2  0  0  0  0
  1  2  1  0  0  0  0
  1 22  1  0  0  0  0
  2  3  2  0  0  0  0
  2 23  1  0  0  0  0
  3  4  1  0  0  0  0
  3 21  1  0  0  0  0
  4  5  2  0  0  0  0
  4 18  1  0  0  0  0
  5  6  1  0  0  0  0
  5 24  1  0  0  0  0
  6  7  1  0  0  0  0
  7  8  2  0  0  0  0
  7  9  2  0  0  0  0
  7 10  1  0  0  0  0
 10 11  1  0  0  0  0
 10 25  1  0  0  0  0
 10 26  1  0  0  0  0
 11 12  1  0  0  0  0
 11 27  1  0  0  0  0
 11 28  1  0  0  0  0
 12 13  2  0  0  0  0
 12 14  1  0  0  0  0
 14 15  1  0  0  0  0
 14 29  1  0  0  0  0
 15 17  1  0  0  0  0
 15 16  1  0  0  0  0
 15 30  1  0  0  0  0
 16 17  1  0  0  0  0
 16 31  1  0  0  0  0
 16 32  1  0  0  0  0
 17 33  1  0  0  0  0
 17 34  1  0  0  0  0
 18 19  2  0  0  0  0
 18 20  1  0  0  0  0
M  END
$$$$
ZINC60318285
 OpenBabel01252620473D

 46 48  0  0  0  0  0  0  0  0999 V2000
   -2.0052   -5.1019   -1.8716 C   0  0  0  0  0  0  0  0  0  0  0  0
   -1.2140   -4.0469   -1.1421 C   0  0  0  0  0  0  0  0  0  0  0  0
   -1.7197   -2.9075   -0.5842 C   0  0  0  0  0  0  0  0  0  0  0  0
   -0.5908   -2.1909    0.0114 C   0  0  0  0  0  0  0  0  0  0  0  0
    0.4747   -2.9025   -0.2104 N   0  0  0  0  0  0  0  0  0  0  0  0
    0.1033   -4.0654   -0.9232 O   0  0  0  0  0  0  0  0  0  0  0  0
   -3.1305   -2.4813   -0.5825 C   0  0  0  0  0  0  0  0  0  0  0  0
   -3.9755   -3.1737   -1.1168 O   0  0  0  0  0  0  0  0  0  0  0  0
   -3.4841   -1.3242    0.0112 N   0  0  0  0  0  0  0  0  0  0  0  0
   -4.8050   -0.8716   -0.0701 C   0  0  0  0  0  0  0  0  0  0  0  0
   -5.0694    0.4895   -0.1625 C   0  0  0  0  0  0  0  0  0  0  0  0
   -6.3737    0.9375   -0.2423 C   0  0  0  0  0  0  0  0  0  0  0  0
   -7.4195    0.0344   -0.2311 C   0  0  0  0  0  0  0  0  0  0  0  0
   -7.1620   -1.3279   -0.1394 C   0  0  0  0  0  0  0  0  0  0  0  0
   -5.8523   -1.7814   -0.0643 C   0  0  0  0  0  0  0  0  0  0  0  0
   -8.2196   -2.2401   -0.1277 N   0  0  0  0  0  0  0  0  0  0  0  0
   -9.4668   -2.0757   -1.2045 S   0  0  0  0  0  0  0  0  0  0  0  0
  -10.3578   -3.1558   -0.9620 O   0  0  0  0  0  0  0  0  0  0  0  0
   -9.8809   -0.7178   -1.1422 O   0  0  0  0  0  0  0  0  0  0  0  0
   -8.7999   -2.3253   -2.8162 C   0  0  0  0  0  0  0  0  0  0  0  0
   -8.3041   -1.2510   -3.5319 C   0  0  0  0  0  0  0  0  0  0  0  0
   -7.7809   -1.4434   -4.7960 C   0  0  0  0  0  0  0  0  0  0  0  0
   -7.7526   -2.7157   -5.3476 C   0  0  0  0  0  0  0  0  0  0  0  0
   -8.2504   -3.7930   -4.6274 C   0  0  0  0  0  0  0  0  0  0  0  0
   -8.7681   -3.5956   -3.3607 C   0  0  0  0  0  0  0  0  0  0  0  0
   -8.2170   -5.3872   -5.3139 Cl  0  0  0  0  0  0  0  0  0  0  0  0
   -7.2388   -2.9073   -6.5913 O   0  0  0  0  0  0  0  0  0  0  0  0
   -6.7450   -1.7532   -7.2741 C   0  0  0  0  0  0  0  0  0  0  0  0
   -6.2187   -2.1569   -8.6273 C   0  0  0  0  0  0  0  0  0  0  0  0
   -6.2625   -3.3248   -8.9748 O   0  0  0  0  0  0  0  0  0  0  0  0
   -5.7492   -1.3157   -9.3746 O   0  0  0  0  0  1  0  0  0  0  0  0
   -1.3349   -5.8959   -2.2008 H   0  0  0  0  0  0  0  0  0  0  0  0
   -2.7597   -5.5170   -1.2035 H   0  0  0  0  0  0  0  0  0  0  0  0
   -2.4931   -4.6557   -2.7382 H   0  0  0  0  0  0  0  0  0  0  0  0
   -0.6345   -1.2478    0.5359 H   0  0  0  0  0  0  0  0  0  0  0  0
   -2.8226   -0.8053    0.4950 H   0  0  0  0  0  0  0  0  0  0  0  0
   -4.2543    1.1979   -0.1715 H   0  0  0  0  0  0  0  0  0  0  0  0
   -6.5765    1.9959   -0.3133 H   0  0  0  0  0  0  0  0  0  0  0  0
   -8.4381    0.3879   -0.2933 H   0  0  0  0  0  0  0  0  0  0  0  0
   -5.6492   -2.8401    0.0025 H   0  0  0  0  0  0  0  0  0  0  0  0
   -8.2235   -2.9699    0.5113 H   0  0  0  0  0  0  0  0  0  0  0  0
   -8.3262   -0.2604   -3.1023 H   0  0  0  0  0  0  0  0  0  0  0  0
   -7.3946   -0.6036   -5.3544 H   0  0  0  0  0  0  0  0  0  0  0  0
   -9.1519   -4.4337   -2.7979 H   0  0  0  0  0  0  0  0  0  0  0  0
   -7.5524   -1.0316   -7.3988 H   0  0  0  0  0  0  0  0  0  0  0  0
   -5.9416   -1.3024   -6.6915 H   0  0  0  0  0  0  0  0  0  0  0  0
  1  2  1  0  0  0  0
  1 32  1  0  0  0  0
  1 33  1  0  0  0  0
  1 34  1  0  0  0  0
  2  6  1  0  0  0  0
  2  3  2  0  0  0  0
  3  4  1  0  0  0  0
  3  7  1  0  0  0  0
  4  5  2  0  0  0  0
  4 35  1  0  0  0  0
  5  6  1  0  0  0  0
  7  8  2  0  0  0  0
  7  9  1  0  0  0  0
  9 10  1  0  0  0  0
  9 36  1  0  0  0  0
 10 15  2  0  0  0  0
 10 11  1  0  0  0  0
 11 12  2  0  0  0  0
 11 37  1  0  0  0  0
 12 13  1  0  0  0  0
 12 38  1  0  0  0  0
 13 14  2  0  0  0  0
 13 39  1  0  0  0  0
 14 15  1  0  0  0  0
 14 16  1  0  0  0  0
 15 40  1  0  0  0  0
 16 17  1  0  0  0  0
 16 41  1  0  0  0  0
 17 18  2  0  0  0  0
 17 19  2  0  0  0  0
 17 20  1  0  0  0  0
 20 25  2  0  0  0  0
 20 21  1  0  0  0  0
 21 22  2  0  0  0  0
 21 42  1  0  0  0  0
 22 23  1  0  0  0  0
 22 43  1  0  0  0  0
 23 24  2  0  0  0  0
 23 27  1  0  0  0  0
 24 25  1  0  0  0  0
 24 26  1  0  0  0  0
 25 44  1  0  0  0  0
 27 28  1  0  0  0  0
 28 29  1  0  0  0  0
 28 45  1  0  0  0  0
 28 46  1  0  0  0  0
 29 30  2  0  0  0  0
 29 31  1  0  0  0  0
M  END
$$$$
ZINC45470027
 OpenBabel01252620473D

 43 44  0  0  0  0  0  0  0  0999 V2000
    0.3299    1.6123   -0.6990 C   0  0  0  0  0  0  0  0  0  0  0  0
    0.3862    0.0867   -0.7999 C   0  0  0  0  0  0  0  0  0  0  0  0
    1.6669   -0.4215   -0.1347 C   0  0  0  0  0  0  0  0  0  0  0  0
   -0.8294   -0.5164   -0.0932 C   0  0  0  0  0  0  0  0  0  0  0  0
   -0.8393   -1.9678   -0.2916 N   0  0  0  0  0  0  0  0  0  0  0  0
   -0.1566   -2.8426    0.6650 C   0  0  0  0  0  0  0  0  0  0  0  0
   -1.4765   -2.4984   -1.3541 C   0  0  0  0  0  0  0  0  0  0  0  0
   -1.9508   -1.7706   -2.2038 O   0  0  0  0  0  0  0  0  0  0  0  0
   -1.5988   -3.9688   -1.4860 C   0  0  0  0  0  0  0  0  0  0  0  0
   -1.7669   -4.7583   -0.3378 C   0  0  0  0  0  0  0  0  0  0  0  0
   -1.8816   -6.1117   -0.4330 C   0  0  0  0  0  0  0  0  0  0  0  0
   -1.8320   -6.7303   -1.6903 C   0  0  0  0  0  0  0  0  0  0  0  0
   -1.6624   -5.9442   -2.8602 C   0  0  0  0  0  0  0  0  0  0  0  0
   -1.5517   -4.5512   -2.7419 C   0  0  0  0  0  0  0  0  0  0  0  0
   -1.6174   -6.5512   -4.0546 N   0  0  0  0  0  0  0  0  0  0  0  0
   -1.7292   -7.8673   -4.1496 C   0  0  0  0  0  0  0  0  0  0  0  0
   -1.8916   -8.6553   -3.0738 N   0  0  0  0  0  0  0  0  0  0  0  0
   -1.9475   -8.1297   -1.8310 C   0  0  0  0  0  0  0  0  0  0  0  0
   -2.1101   -8.9195   -0.7552 O   0  5  0  0  0  0  0  0  0  0  0  0
   -2.0091  -10.1048   -3.2511 C   0  0  0  0  0  0  0  0  0  0  0  0
   -0.6394  -10.7306   -3.1935 C   0  0  0  0  0  0  0  0  0  0  0  0
   -0.3954  -11.6953   -2.3415 C   0  0  0  0  0  0  0  0  0  0  0  0
   -1.6651   -8.5908   -5.6999 S   0  0  0  0  0  0  0  0  0  0  0  0
    1.1959    2.0420   -1.2025 H   0  0  0  0  0  0  0  0  0  0  0  0
   -0.5825    1.9744   -1.1729 H   0  0  0  0  0  0  0  0  0  0  0  0
    0.3361    1.9075    0.3503 H   0  0  0  0  0  0  0  0  0  0  0  0
    0.3799   -0.2085   -1.8491 H   0  0  0  0  0  0  0  0  0  0  0  0
    1.7070   -1.5084   -0.2066 H   0  0  0  0  0  0  0  0  0  0  0  0
    2.5329    0.0082   -0.6382 H   0  0  0  0  0  0  0  0  0  0  0  0
    1.6732   -0.1263    0.9145 H   0  0  0  0  0  0  0  0  0  0  0  0
   -0.7764   -0.2957    0.9730 H   0  0  0  0  0  0  0  0  0  0  0  0
   -1.7412   -0.0867   -0.5082 H   0  0  0  0  0  0  0  0  0  0  0  0
   -0.8246   -3.0616    1.4980 H   0  0  0  0  0  0  0  0  0  0  0  0
    0.1245   -3.7724    0.1705 H   0  0  0  0  0  0  0  0  0  0  0  0
    0.7383   -2.3445    1.0381 H   0  0  0  0  0  0  0  0  0  0  0  0
   -1.8054   -4.2866    0.6330 H   0  0  0  0  0  0  0  0  0  0  0  0
   -2.0103   -6.7077    0.4584 H   0  0  0  0  0  0  0  0  0  0  0  0
   -1.4269   -3.9382   -3.6222 H   0  0  0  0  0  0  0  0  0  0  0  0
   -2.6313  -10.5186   -2.4576 H   0  0  0  0  0  0  0  0  0  0  0  0
   -2.4650  -10.3167   -4.2183 H   0  0  0  0  0  0  0  0  0  0  0  0
    0.1411  -10.3837   -3.8545 H   0  0  0  0  0  0  0  0  0  0  0  0
    0.5862  -12.1438   -2.3002 H   0  0  0  0  0  0  0  0  0  0  0  0
   -1.1758  -12.0422   -1.6805 H   0  0  0  0  0  0  0  0  0  0  0  0
  1  2  1  0  0  0  0
  1 24  1  0  0  0  0
  1 25  1  0  0  0  0
  1 26  1  0  0  0  0
  2  3  1  0  0  0  0
  2  4  1  0  0  0  0
  2 27  1  0  0  0  0
  3 28  1  0  0  0  0
  3 29  1  0  0  0  0
  3 30  1  0  0  0  0
  4  5  1  0  0  0  0
  4 31  1  0  0  0  0
  4 32  1  0  0  0  0
  5  6  1  0  0  0  0
  5  7  1  0  0  0  0
  6 33  1  0  0  0  0
  6 34  1  0  0  0  0
  6 35  1  0  0  0  0
  7  8  2  0  0  0  0
  7  9  1  0  0  0  0
  9 14  2  0  0  0  0
  9 10  1  0  0  0  0
 10 11  2  0  0  0  0
 10 36  1  0  0  0  0
 11 12  1  0  0  0  0
 11 37  1  0  0  0  0
 12 18  2  0  0  0  0
 12 13  1  0  0  0  0
 13 14  1  0  0  0  0
 13 15  2  0  0  0  0
 14 38  1  0  0  0  0
 15 16  1  0  0  0  0
 16 17  1  0  0  0  0
 16 23  2  0  0  0  0
 17 18  1  0  0  0  0
 17 20  1  0  0  0  0
 18 19  1  0  0  0  0
 20 21  1  0  0  0  0
 20 39  1  0  0  0  0
 20 40  1  0  0  0  0
 21 22  2  0  0  0  0
 21 41  1  0  0  0  0
 22 42  1  0  0  0  0
 22 43  1  0  0  0  0
M  CHG  1  19  -1
M  END
$$$$
ZINC16935006
 OpenBabel01252620473D

 50 51  0  0  1  0  0  0  0  0999 V2000
   -1.1216    0.6197   -0.5909 C   0  0  0  0  0  0  0  0  0  0  0  0
   -1.5320    1.1110    0.7988 C   0  0  0  0  0  0  0  0  0  0  0  0
   -0.9749    2.5175    1.0276 C   0  0  2  0  0  0  0  0  0  0  0  0
    0.1036    2.5111    0.8698 H   0  0  0  0  0  0  0  0  0  0  0  0
   -1.2735    2.9527    2.4391 C   0  0  0  0  0  0  0  0  0  0  0  0
   -2.0141    3.8860    2.6397 O   0  0  0  0  0  0  0  0  0  0  0  0
   -1.5852    3.4268    0.1096 O   0  0  0  0  0  0  0  0  0  0  0  0
   -0.8718    3.7566   -0.9975 C   0  0  0  0  0  0  0  0  0  0  0  0
    0.3404    3.1263   -1.2534 C   0  0  0  0  0  0  0  0  0  0  0  0
    1.0652    3.4527   -2.3774 C   0  0  0  0  0  0  0  0  0  0  0  0
    0.5847    4.4301   -3.2577 C   0  0  0  0  0  0  0  0  0  0  0  0
   -0.6344    5.0660   -2.9920 C   0  0  0  0  0  0  0  0  0  0  0  0
   -1.3536    4.7275   -1.8679 C   0  0  0  0  0  0  0  0  0  0  0  0
    1.3560    4.7865   -4.4553 C   0  0  0  0  0  0  0  0  0  0  0  0
    2.6659    4.4422   -4.5463 C   0  0  0  0  0  0  0  0  0  0  0  0
    3.5938    4.5634   -5.6885 C   0  0  0  0  0  0  0  0  0  0  0  0
    3.2370    5.0269   -6.7559 O   0  0  0  0  0  0  0  0  0  0  0  0
    4.8322    4.1426   -5.4932 N   0  0  0  0  0  0  0  0  0  0  0  0
    5.2233    3.6293   -4.3090 C   0  0  0  0  0  0  0  0  0  0  0  0
    6.7669    3.0368   -3.8649 S   0  0  0  0  0  0  0  0  0  0  0  0
    3.7438    3.7246   -3.3140 S   0  0  0  0  0  0  0  0  0  0  0  0
    5.8010    4.2356   -6.5881 C   0  0  0  0  0  0  0  0  0  0  0  0
    6.5160    5.5867   -6.5231 C   0  0  0  0  0  0  0  0  0  0  0  0
    7.5278    5.6839   -7.6666 C   0  0  0  0  0  0  0  0  0  0  0  0
    8.2428    7.0349   -7.6015 C   0  0  0  0  0  0  0  0  0  0  0  0
    9.2546    7.1321   -8.7451 C   0  0  0  0  0  0  0  0  0  0  0  0
    9.9589    8.4629   -8.6810 C   0  0  0  0  0  0  0  0  0  0  0  0
    9.6802    9.2526   -7.8101 O   0  0  0  0  0  0  0  0  0  0  0  0
   -1.5186   -0.3823   -0.7538 H   0  0  0  0  0  0  0  0  0  0  0  0
   -0.0342    0.5956   -0.6612 H   0  0  0  0  0  0  0  0  0  0  0  0
   -1.5198    1.2958   -1.3475 H   0  0  0  0  0  0  0  0  0  0  0  0
   -2.6195    1.1352    0.8691 H   0  0  0  0  0  0  0  0  0  0  0  0
   -1.1339    0.4350    1.5554 H   0  0  0  0  0  0  0  0  0  0  0  0
    0.7124    2.3760   -0.5713 H   0  0  0  0  0  0  0  0  0  0  0  0
    2.0046    2.9589   -2.5778 H   0  0  0  0  0  0  0  0  0  0  0  0
   -1.0098    5.8201   -3.6677 H   0  0  0  0  0  0  0  0  0  0  0  0
   -2.2941    5.2170   -1.6622 H   0  0  0  0  0  0  0  0  0  0  0  0
    0.8811    5.3225   -5.2638 H   0  0  0  0  0  0  0  0  0  0  0  0
    6.5323    3.4327   -6.4954 H   0  0  0  0  0  0  0  0  0  0  0  0
    5.2811    4.1452   -7.5419 H   0  0  0  0  0  0  0  0  0  0  0  0
    5.7847    6.3896   -6.6158 H   0  0  0  0  0  0  0  0  0  0  0  0
    7.0359    5.6771   -5.5693 H   0  0  0  0  0  0  0  0  0  0  0  0
    8.2591    4.8809   -7.5739 H   0  0  0  0  0  0  0  0  0  0  0  0
    7.0079    5.5935   -8.6204 H   0  0  0  0  0  0  0  0  0  0  0  0
    7.5115    7.8379   -7.6943 H   0  0  0  0  0  0  0  0  0  0  0  0
    8.7627    7.1253   -6.6478 H   0  0  0  0  0  0  0  0  0  0  0  0
    9.9859    6.3292   -8.6524 H   0  0  0  0  0  0  0  0  0  0  0  0
    8.7348    7.0417   -9.6989 H   0  0  0  0  0  0  0  0  0  0  0  0
   -0.7168    2.3033    3.4736 O   0  0  0  0  0  1  0  0  0  0  0  0
   10.8958    8.7709   -9.5915 O   0  0  0  0  0  1  0  0  0  0  0  0
  1  2  1  0  0  0  0
  1 29  1  0  0  0  0
  1 30  1  0  0  0  0
  1 31  1  0  0  0  0
  2  3  1  0  0  0  0
  2 32  1  0  0  0  0
  2 33  1  0  0  0  0
  3  4  1  6  0  0  0
  3  5  1  0  0  0  0
  3  7  1  0  0  0  0
  5  6  2  0  0  0  0
  5 49  1  0  0  0  0
  7  8  1  0  0  0  0
  8 13  2  0  0  0  0
  8  9  1  0  0  0  0
  9 10  2  0  0  0  0
  9 34  1  0  0  0  0
 10 11  1  0  0  0  0
 10 35  1  0  0  0  0
 11 12  2  0  0  0  0
 11 14  1  0  0  0  0
 12 13  1  0  0  0  0
 12 36  1  0  0  0  0
 13 37  1  0  0  0  0
 14 15  2  0  0  0  0
 14 38  1  0  0  0  0
 15 21  1  0  0  0  0
 15 16  1  0  0  0  0
 16 17  2  0  0  0  0
 16 18  1  0  0  0  0
 18 19  1  0  0  0  0
 18 22  1  0  0  0  0
 19 20  2  0  0  0  0
 19 21  1  0  0  0  0
 22 23  1  0  0  0  0
 22 39  1  0  0  0  0
 22 40  1  0  0  0  0
 23 24  1  0  0  0  0
 23 41  1  0  0  0  0
 23 42  1  0  0  0  0
 24 25  1  0  0  0  0
 24 43  1  0  0  0  0
 24 44  1  0  0  0  0
 25 26  1  0  0  0  0
 25 45  1  0  0  0  0
 25 46  1  0  0  0  0
 26 27  1  0  0  0  0
 26 47  1  0  0  0  0
 26 48  1  0  0  0  0
 27 28  2  0  0  0  0
 27 50  1  0  0  0  0
M  END
$$$$
ZINC32521267
 OpenBabel01252620473D

 32 33  0  0  0  0  0  0  0  0999 V2000
    1.9185   -1.6440   -0.0256 C   0  0  0  0  0  0  0  0  0  0  0  0
    1.3704   -0.2402   -0.0123 C   0  0  0  0  0  0  0  0  0  0  0  0
    0.0021   -0.0041    0.0020 C   0  0  0  0  0  0  0  0  0  0  0  0
   -0.0222    1.7829    0.0118 S   0  0  0  0  0  0  0  0  0  0  0  0
    1.6960    2.0334   -0.0032 C   0  0  0  0  0  0  0  0  0  0  0  0
    2.1670    0.7960   -0.0144 N   0  0  0  0  0  0  0  0  0  0  0  0
    2.3970    3.2264   -0.0035 N   0  0  0  0  0  0  0  0  0  0  0  0
    1.7320    4.3987    0.0096 C   0  0  0  0  0  0  0  0  0  0  0  0
    0.5195    4.4079    0.0217 O   0  0  0  0  0  0  0  0  0  0  0  0
    2.4954    5.6980    0.0093 C   0  0  0  0  0  0  0  0  0  0  0  0
    1.3298    7.0826    0.0286 S   0  0  0  0  0  0  0  0  0  0  0  0
    2.4601    8.4342    0.0250 C   0  0  0  0  0  0  0  0  0  0  0  0
    1.9872    9.7127    0.0311 N   0  0  0  0  0  0  0  0  0  0  0  0
    2.8777   10.7313    0.0328 C   0  0  0  0  0  0  0  0  0  0  0  0
    2.5025   11.8917    0.0430 O   0  5  0  0  0  0  0  0  0  0  0  0
    4.2531   10.4139    0.0174 C   0  0  0  0  0  0  0  0  0  0  0  0
    4.6241    9.1550    0.0071 N   0  0  0  0  0  0  0  0  0  0  0  0
    3.7623    8.2021    0.0108 N   0  0  0  0  0  0  0  0  0  0  0  0
   -1.1092   -0.9530    0.0068 C   0  0  0  0  0  0  0  0  0  0  0  0
   -0.8877   -2.1493   -0.0020 O   0  0  0  0  0  0  0  0  0  0  0  0
   -2.3810   -0.5025    0.0211 O   0  0  0  0  0  0  0  0  0  0  0  0
   -3.4177   -1.4860    0.0251 C   0  0  0  0  0  0  0  0  0  0  0  0
    1.0858   -2.3628   -0.0214 H   0  0  0  0  0  0  0  0  0  0  0  0
    2.5438   -1.8019    0.8655 H   0  0  0  0  0  0  0  0  0  0  0  0
    2.5259   -1.7919   -0.9307 H   0  0  0  0  0  0  0  0  0  0  0  0
    3.4969    3.2180   -0.0144 H   0  0  0  0  0  0  0  0  0  0  0  0
    3.1371    5.7464    0.9014 H   0  0  0  0  0  0  0  0  0  0  0  0
    3.1193    5.7565   -0.8947 H   0  0  0  0  0  0  0  0  0  0  0  0
    4.9936   11.2000    0.0144 H   0  0  0  0  0  0  0  0  0  0  0  0
   -4.3974   -0.9860    0.0370 H   0  0  0  0  0  0  0  0  0  0  0  0
   -3.3185   -2.1196    0.9188 H   0  0  0  0  0  0  0  0  0  0  0  0
   -3.3351   -2.1094   -0.8774 H   0  0  0  0  0  0  0  0  0  0  0  0
  1  2  1  0  0  0  0
  1 23  1  0  0  0  0
  1 24  1  0  0  0  0
  1 25  1  0  0  0  0
  2  6  1  0  0  0  0
  2  3  2  0  0  0  0
  3  4  1  0  0  0  0
  3 19  1  0  0  0  0
  4  5  1  0  0  0  0
  5  6  2  0  0  0  0
  5  7  1  0  0  0  0
  7  8  1  0  0  0  0
  7 26  1  0  0  0  0
  8  9  2  0  0  0  0
  8 10  1  0  0  0  0
 10 11  1  0  0  0  0
 10 27  1  0  0  0  0
 10 28  1  0  0  0  0
 11 12  1  0  0  0  0
 12 18  2  0  0  0  0
 12 13  1  0  0  0  0
 13 14  2  0  0  0  0
 14 15  1  0  0  0  0
 14 16  1  0  0  0  0
 16 17  2  0  0  0  0
 16 29  1  0  0  0  0
 17 18  1  0  0  0  0
 19 20  2  0  0  0  0
 19 21  1  0  0  0  0
 21 22  1  0  0  0  0
 22 30  1  0  0  0  0
 22 31  1  0  0  0  0
 22 32  1  0  0  0  0
M  CHG  1  15  -1
M  END
$$$$
ZINC16934492
 OpenBabel01252620473D

 33 34  0  0  1  0  0  0  0  0999 V2000
    0.0570    1.3237   -0.0311 C   0  0  0  0  0  0  0  0  0  0  0  0
    0.0810   -0.0159   -0.2961 C   0  0  0  0  0  0  0  0  0  0  0  0
    1.2392   -0.6068   -0.8104 C   0  0  0  0  0  0  0  0  0  0  0  0
    2.3743    0.1726   -1.0536 C   0  0  0  0  0  0  0  0  0  0  0  0
    2.3528    1.5124   -0.7894 C   0  0  0  0  0  0  0  0  0  0  0  0
    1.1932    2.1056   -0.2747 C   0  0  0  0  0  0  0  0  0  0  0  0
    1.1687    3.5467    0.0099 C   0  0  0  0  0  0  0  0  0  0  0  0
    2.3312    4.2391    0.1049 C   0  0  0  0  0  0  0  0  0  0  0  0
    2.5541    5.6984    0.2254 C   0  0  0  0  0  0  0  0  0  0  0  0
    1.6285    6.4872    0.2527 O   0  0  0  0  0  0  0  0  0  0  0  0
    3.8121    6.0984    0.3062 N   0  0  0  0  0  0  0  0  0  0  0  0
    4.8351    5.2209    0.2678 C   0  0  0  0  0  0  0  0  0  0  0  0
    6.5145    5.5430    0.3494 S   0  0  0  0  0  0  0  0  0  0  0  0
    4.0162    3.6420    0.1113 S   0  0  0  0  0  0  0  0  0  0  0  0
    4.1011    7.5290    0.4331 C   0  0  2  0  0  0  0  0  0  0  0  0
    3.1659    8.0886    0.4487 H   0  0  0  0  0  0  0  0  0  0  0  0
    4.9488    7.9855   -0.7560 C   0  0  0  0  0  0  0  0  0  0  0  0
    4.1472    7.8517   -2.0251 C   0  0  0  0  0  0  0  0  0  0  0  0
    3.0142    7.4341   -1.9829 O   0  0  0  0  0  0  0  0  0  0  0  0
    4.8565    7.7772    1.7132 C   0  0  0  0  0  0  0  0  0  0  0  0
    5.1258    6.8539    2.4445 O   0  0  0  0  0  0  0  0  0  0  0  0
    1.2638   -2.0548   -1.0963 C   0  0  0  0  0  0  0  0  0  0  0  0
    0.2780   -2.7325   -0.8848 O   0  0  0  0  0  0  0  0  0  0  0  0
   -0.8392    1.7806    0.3619 H   0  0  0  0  0  0  0  0  0  0  0  0
   -0.7949   -0.6191   -0.1080 H   0  0  0  0  0  0  0  0  0  0  0  0
    3.2685   -0.2851   -1.4501 H   0  0  0  0  0  0  0  0  0  0  0  0
    3.2296    2.1143   -0.9777 H   0  0  0  0  0  0  0  0  0  0  0  0
    0.2251    4.0549    0.1435 H   0  0  0  0  0  0  0  0  0  0  0  0
    5.2383    9.0271   -0.6172 H   0  0  0  0  0  0  0  0  0  0  0  0
    5.8429    7.3658   -0.8240 H   0  0  0  0  0  0  0  0  0  0  0  0
    4.6919    8.1965   -3.2025 O   0  0  0  0  0  1  0  0  0  0  0  0
    5.2302    9.0241    2.0410 O   0  0  0  0  0  1  0  0  0  0  0  0
    2.3796   -2.6248   -1.5919 O   0  0  0  0  0  1  0  0  0  0  0  0
  1  6  2  0  0  0  0
  1  2  1  0  0  0  0
  1 24  1  0  0  0  0
  2  3  2  0  0  0  0
  2 25  1  0  0  0  0
  3  4  1  0  0  0  0
  3 22  1  0  0  0  0
  4  5  2  0  0  0  0
  4 26  1  0  0  0  0
  5  6  1  0  0  0  0
  5 27  1  0  0  0  0
  6  7  1  0  0  0  0
  7  8  2  0  0  0  0
  7 28  1  0  0  0  0
  8 14  1  0  0  0  0
  8  9  1  0  0  0  0
  9 10  2  0  0  0  0
  9 11  1  0  0  0  0
 11 12  1  0  0  0  0
 11 15  1  0  0  0  0
 12 13  2  0  0  0  0
 12 14  1  0  0  0  0
 15 16  1  1  0  0  0
 15 17  1  0  0  0  0
 15 20  1  0  0  0  0
 17 18  1  0  0  0  0
 17 29  1  0  0  0  0
 17 30  1  0  0  0  0
 18 19  2  0  0  0  0
 18 31  1  0  0  0  0
 20 21  2  0  0  0  0
 20 32  1  0  0  0  0
 22 23  2  0  0  0  0
 22 33  1  0  0  0  0
M  END
$$$$
ZINC05373626
 OpenBabel01252620473D

 26 29  0  0  1  0  0  0  0  0999 V2000
   -0.9722    2.4520    0.7692 C   0  0  0  0  0  0  0  0  0  0  0  0
   -1.0058    2.4042   -0.7653 C   0  0  0  0  0  0  0  0  0  0  0  0
   -0.0048    1.5883    0.0059 C   0  0  0  0  0  0  0  0  0  0  0  0
    0.0145    0.0487    0.0564 C   0  0  1  0  0  0  0  0  0  0  0  0
   -0.9517   -0.4554    0.0808 H   0  0  0  0  0  0  0  0  0  0  0  0
    0.9836   -0.3197   -1.1219 C   0  0  1  0  0  0  0  0  0  0  0  0
    0.4755   -0.6370   -2.0325 H   0  0  0  0  0  0  0  0  0  0  0  0
    1.8887    0.9354   -1.2847 C   0  0  1  0  0  0  0  0  0  0  0  0
    1.6593    1.4536   -2.2158 H   0  0  0  0  0  0  0  0  0  0  0  0
    1.5229    1.8295   -0.0324 C   0  0  2  0  0  0  0  0  0  0  0  0
    1.8529    2.8677   -0.0670 H   0  0  0  0  0  0  0  0  0  0  0  0
    1.9816    0.9785    1.1982 C   0  0  1  0  0  0  0  0  0  0  0  0
    1.9198    1.5702    2.1115 H   0  0  0  0  0  0  0  0  0  0  0  0
    0.9903   -0.2105    1.2595 C   0  0  2  0  0  0  0  0  0  0  0  0
    0.4821   -0.3139    2.2183 H   0  0  0  0  0  0  0  0  0  0  0  0
    1.6878   -1.4234    0.8406 O   0  0  0  0  0  0  0  0  0  0  0  0
    1.8935   -1.3840   -0.4829 C   0  0  0  0  0  0  0  0  0  0  0  0
    2.6680   -2.0863   -1.0886 O   0  0  0  0  0  0  0  0  0  0  0  0
    3.6640    0.3787    0.9521 Cl  0  0  0  0  0  0  0  0  0  0  0  0
    3.3439    0.5466   -1.2397 C   0  0  0  0  0  0  0  0  0  0  0  0
    3.6844   -0.5606   -1.5831 O   0  0  0  0  0  0  0  0  0  0  0  0
   -1.7781    1.9529    1.3072 H   0  0  0  0  0  0  0  0  0  0  0  0
   -0.5811    3.3554    1.2373 H   0  0  0  0  0  0  0  0  0  0  0  0
   -0.6369    3.2762   -1.3054 H   0  0  0  0  0  0  0  0  0  0  0  0
   -1.8338    1.8737   -1.2354 H   0  0  0  0  0  0  0  0  0  0  0  0
    4.2620    1.4305   -0.8181 O   0  0  0  0  0  1  0  0  0  0  0  0
  1  3  1  0  0  0  0
  1  2  1  0  0  0  0
  1 22  1  0  0  0  0
  1 23  1  0  0  0  0
  2  3  1  0  0  0  0
  2 24  1  0  0  0  0
  2 25  1  0  0  0  0
  3 10  1  0  0  0  0
  3  4  1  0  0  0  0
  4  5  1  1  0  0  0
  4 14  1  0  0  0  0
  4  6  1  0  0  0  0
  6  7  1  6  0  0  0
  6 17  1  0  0  0  0
  6  8  1  0  0  0  0
  8  9  1  6  0  0  0
  8 10  1  0  0  0  0
  8 20  1  0  0  0  0
 10 11  1  6  0  0  0
 10 12  1  0  0  0  0
 12 13  1  1  0  0  0
 12 14  1  0  0  0  0
 12 19  1  0  0  0  0
 14 15  1  1  0  0  0
 14 16  1  0  0  0  0
 16 17  1  0  0  0  0
 17 18  2  0  0  0  0
 20 21  2  0  0  0  0
 20 26  1  0  0  0  0
M  END
$$$$
ZINC12372005
 OpenBabel01252620473D

 37 39  0  0  0  0  0  0  0  0999 V2000
   -0.0184    1.5028    0.0103 C   0  0  0  0  0  0  0  0  0  0  0  0
    0.0021   -0.0041    0.0020 C   0  0  0  0  0  0  0  0  0  0  0  0
   -1.1683   -0.8812    0.0026 C   0  0  0  0  0  0  0  0  0  0  0  0
   -0.7111   -2.1642   -0.0064 N   0  0  0  0  0  4  0  0  0  0  0  0
   -1.0663   -3.4015   -0.0112 N   0  0  0  0  0  0  0  0  0  0  0  0
    0.0058   -4.1793   -0.0201 C   0  0  0  0  0  0  0  0  0  0  0  0
    1.1209   -3.3921   -0.0211 C   0  0  0  0  0  0  0  0  0  0  0  0
    0.6902   -2.1123   -0.0126 N   0  0  0  0  0  0  0  0  0  0  0  0
    1.0879   -0.7727   -0.0129 N   0  0  0  0  0  2  0  0  0  0  0  0
    2.5281   -3.8518   -0.0292 N   0  0  0  0  0  4  0  0  0  0  0  0
    3.1587   -4.0620    1.1077 O   0  0  0  0  0  0  0  0  0  0  0  0
    3.1494   -4.0505   -1.1733 O   0  5  0  0  0  0  0  0  0  0  0  0
   -0.0039   -5.6862   -0.0273 C   0  0  0  0  0  0  0  0  0  0  0  0
   -2.5138   -0.4758    0.0110 C   0  0  0  0  0  0  0  0  0  0  0  0
   -3.4979   -1.4010    0.0110 O   0  5  0  0  0  0  0  0  0  0  0  0
   -2.8192    0.8233    0.0190 N   0  0  0  0  0  0  0  0  0  0  0  0
   -4.0879    1.2055    0.0268 C   0  0  0  0  0  0  0  0  0  0  0  0
   -5.2189    0.4586    0.0345 N   0  0  0  0  0  0  0  0  0  0  0  0
   -6.3308    1.0596    0.0417 N   0  0  0  0  0  0  0  0  0  0  0  0
   -6.4087    2.3928    0.0419 C   0  0  0  0  0  0  0  0  0  0  0  0
   -4.7868    2.8502    0.0384 S   0  0  0  0  0  0  0  0  0  0  0  0
   -7.6363    3.2669    0.0494 C   0  0  0  0  0  0  0  0  0  0  0  0
   -8.4782    2.9745   -1.1943 C   0  0  0  0  0  0  0  0  0  0  0  0
   -8.4620    2.9759    1.3042 C   0  0  0  0  0  0  0  0  0  0  0  0
    1.0042    1.8801    0.0026 H   0  0  0  0  0  0  0  0  0  0  0  0
   -0.5455    1.8639   -0.8728 H   0  0  0  0  0  0  0  0  0  0  0  0
   -0.5286    1.8543    0.9071 H   0  0  0  0  0  0  0  0  0  0  0  0
   -0.0108   -6.0446   -1.0567 H   0  0  0  0  0  0  0  0  0  0  0  0
    0.8859   -6.0578    0.4808 H   0  0  0  0  0  0  0  0  0  0  0  0
   -0.8940   -6.0463    0.4886 H   0  0  0  0  0  0  0  0  0  0  0  0
   -7.3362    4.3148    0.0469 H   0  0  0  0  0  0  0  0  0  0  0  0
   -8.7783    1.9267   -1.1917 H   0  0  0  0  0  0  0  0  0  0  0  0
   -9.3661    3.6068   -1.1888 H   0  0  0  0  0  0  0  0  0  0  0  0
   -7.8900    3.1819   -2.0882 H   0  0  0  0  0  0  0  0  0  0  0  0
   -8.7621    1.9280    1.3067 H   0  0  0  0  0  0  0  0  0  0  0  0
   -7.8622    3.1842    2.1902 H   0  0  0  0  0  0  0  0  0  0  0  0
   -9.3498    3.6081    1.3096 H   0  0  0  0  0  0  0  0  0  0  0  0
  1  2  1  0  0  0  0
  1 25  1  0  0  0  0
  1 26  1  0  0  0  0
  1 27  1  0  0  0  0
  2  9  1  0  0  0  0
  2  3  2  0  0  0  0
  3  4  1  0  0  0  0
  3 14  1  0  0  0  0
  4  8  1  0  0  0  0
  4  5  2  0  0  0  0
  5  6  1  0  0  0  0
  6  7  2  0  0  0  0
  6 13  1  0  0  0  0
  7  8  1  0  0  0  0
  7 10  1  0  0  0  0
  8  9  1  0  0  0  0
 10 11  2  0  0  0  0
 10 12  1  0  0  0  0
 13 28  1  0  0  0  0
 13 29  1  0  0  0  0
 13 30  1  0  0  0  0
 14 15  1  0  0  0  0
 14 16  2  0  0  0  0
 16 17  1  0  0  0  0
 17 21  1  0  0  0  0
 17 18  2  0  0  0  0
 18 19  1  0  0  0  0
 19 20  2  0  0  0  0
 20 21  1  0  0  0  0
 20 22  1  0  0  0  0
 22 23  1  0  0  0  0
 22 24  1  0  0  0  0
 22 31  1  0  0  0  0
 23 32  1  0  0  0  0
 23 33  1  0  0  0  0
 23 34  1  0  0  0  0
 24 35  1  0  0  0  0
 24 36  1  0  0  0  0
 24 37  1  0  0  0  0
M  CHG  2  12  -1  15  -1
M  END
$$$$
ZINC64478775
 OpenBabel01252620473D

 38 39  0  0  0  0  0  0  0  0999 V2000
   -0.0178    1.4608    0.0101 C   0  0  0  0  0  0  0  0  0  0  0  0
    0.0021   -0.0041    0.0020 N   0  0  0  0  0  0  0  0  0  0  0  0
    0.5851   -0.6645   -1.0180 C   0  0  0  0  0  0  0  0  0  0  0  0
    1.0945   -0.0447   -1.9313 O   0  0  0  0  0  0  0  0  0  0  0  0
    0.6051   -2.1414   -1.0261 C   0  0  0  0  0  0  0  0  0  0  0  0
    0.0159   -2.8560    0.0185 C   0  0  0  0  0  0  0  0  0  0  0  0
    0.0387   -4.2409    0.0040 C   0  0  0  0  0  0  0  0  0  0  0  0
    0.6469   -4.9166   -1.0484 C   0  0  0  0  0  0  0  0  0  0  0  0
    1.2306   -4.2124   -2.0832 C   0  0  0  0  0  0  0  0  0  0  0  0
    1.2091   -2.8293   -2.0827 C   0  0  0  0  0  0  0  0  0  0  0  0
    1.7758   -2.1438   -3.0997 F   0  0  0  0  0  0  0  0  0  0  0  0
   -0.5500   -4.9603    1.0489 N   0  0  0  0  0  2  0  0  0  0  0  0
   -0.5232   -6.6160    1.0323 S   0  0  0  0  0  0  0  0  0  0  0  0
   -1.3253   -7.0241   -0.0674 O   0  0  0  0  0  0  0  0  0  0  0  0
    0.8379   -7.0015    1.1670 O   0  0  0  0  0  0  0  0  0  0  0  0
   -1.3487   -7.1650    2.4889 C   0  0  0  0  0  0  0  0  0  0  0  0
   -0.6336   -7.3641    3.6553 C   0  0  0  0  0  0  0  0  0  0  0  0
   -1.2811   -7.7947    4.7979 C   0  0  0  0  0  0  0  0  0  0  0  0
   -2.6440   -8.0260    4.7746 C   0  0  0  0  0  0  0  0  0  0  0  0
   -3.3590   -7.8261    3.6088 C   0  0  0  0  0  0  0  0  0  0  0  0
   -2.7120   -7.3912    2.4670 C   0  0  0  0  0  0  0  0  0  0  0  0
   -5.0958   -8.1214    3.5790 S   0  0  0  0  0  0  0  0  0  0  0  0
   -5.4399   -8.3842    2.2255 O   0  0  0  0  0  0  0  0  0  0  0  0
   -5.3695   -9.0411    4.6270 O   0  0  0  0  0  0  0  0  0  0  0  0
   -5.8411   -6.7007    3.9894 N   0  0  0  0  0  0  0  0  0  0  0  0
    1.0048    1.8381    0.0023 H   0  0  0  0  0  0  0  0  0  0  0  0
   -0.5450    1.8219   -0.8730 H   0  0  0  0  0  0  0  0  0  0  0  0
   -0.5280    1.8123    0.9069 H   0  0  0  0  0  0  0  0  0  0  0  0
   -0.4044   -0.4986    0.7308 H   0  0  0  0  0  0  0  0  0  0  0  0
   -0.4559   -2.3307    0.8357 H   0  0  0  0  0  0  0  0  0  0  0  0
    0.6631   -5.9965   -1.0563 H   0  0  0  0  0  0  0  0  0  0  0  0
    1.7015   -4.7432   -2.8974 H   0  0  0  0  0  0  0  0  0  0  0  0
    0.4310   -7.1834    3.6735 H   0  0  0  0  0  0  0  0  0  0  0  0
   -0.7224   -7.9509    5.7089 H   0  0  0  0  0  0  0  0  0  0  0  0
   -3.1498   -8.3632    5.6672 H   0  0  0  0  0  0  0  0  0  0  0  0
   -3.2714   -7.2314    1.5571 H   0  0  0  0  0  0  0  0  0  0  0  0
   -5.3096   -5.9142    4.1890 H   0  0  0  0  0  0  0  0  0  0  0  0
   -6.8092   -6.6550    4.0303 H   0  0  0  0  0  0  0  0  0  0  0  0
  1  2  1  0  0  0  0
  1 26  1  0  0  0  0
  1 27  1  0  0  0  0
  1 28  1  0  0  0  0
  2  3  1  0  0  0  0
  2 29  1  0  0  0  0
  3  4  2  0  0  0  0
  3  5  1  0  0  0  0
  5 10  2  0  0  0  0
  5  6  1  0  0  0  0
  6  7  2  0  0  0  0
  6 30  1  0  0  0  0
  7  8  1  0  0  0  0
  7 12  1  0  0  0  0
  8  9  2  0  0  0  0
  8 31  1  0  0  0  0
  9 10  1  0  0  0  0
  9 32  1  0  0  0  0
 10 11  1  0  0  0  0
 12 13  1  0  0  0  0
 13 14  2  0  0  0  0
 13 15  2  0  0  0  0
 13 16  1  0  0  0  0
 16 21  2  0  0  0  0
 16 17  1  0  0  0  0
 17 18  2  0  0  0  0
 17 33  1  0  0  0  0
 18 19  1  0  0  0  0
 18 34  1  0  0  0  0
 19 20  2  0  0  0  0
 19 35  1  0  0  0  0
 20 21  1  0  0  0  0
 20 22  1  0  0  0  0
 21 36  1  0  0  0  0
 22 23  2  0  0  0  0
 22 24  2  0  0  0  0
 22 25  1  0  0  0  0
 25 37  1  0  0  0  0
 25 38  1  0  0  0  0
M  END
$$$$
ZINC14989339
 OpenBabel01252620473D

 37 38  0  0  0  0  0  0  0  0999 V2000
   -1.2388    3.0408    0.0303 C   0  0  0  0  0  0  0  0  0  0  0  0
   -2.4219    3.7164    0.0346 C   0  0  0  0  0  0  0  0  0  0  0  0
   -3.6419    2.9968    0.0370 C   0  0  0  0  0  0  0  0  0  0  0  0
   -3.6166    1.5807    0.0287 C   0  0  0  0  0  0  0  0  0  0  0  0
   -2.4218    0.9260    0.0186 C   0  0  0  0  0  0  0  0  0  0  0  0
   -1.2260    1.6454    0.0168 C   0  0  0  0  0  0  0  0  0  0  0  0
   -0.0111    0.9658    0.0074 N   0  0  0  0  0  0  0  0  0  0  0  0
   -5.1246    0.6692    0.0309 S   0  0  0  0  0  0  0  0  0  0  0  0
   -5.3898    0.3262    1.3841 O   0  0  0  0  0  0  0  0  0  0  0  0
   -6.0451    1.4051   -0.7630 O   0  0  0  0  0  0  0  0  0  0  0  0
   -4.8529    3.6742    0.0469 C   0  0  0  0  0  0  0  0  0  0  0  0
   -4.8706    4.9811    0.0545 C   0  0  0  0  0  0  0  0  0  0  0  0
   -4.8884    6.2879    0.0621 C   0  0  0  0  0  0  0  0  0  0  0  0
   -4.8918    6.9748    1.2679 C   0  0  0  0  0  0  0  0  0  0  0  0
   -4.8762    6.2648    2.4933 C   0  0  0  0  0  0  0  0  0  0  0  0
   -4.8793    6.9496    3.6712 C   0  0  0  0  0  0  0  0  0  0  0  0
   -4.8978    8.3450    3.6733 C   0  0  0  0  0  0  0  0  0  0  0  0
   -4.9128    9.0549    2.4719 C   0  0  0  0  0  0  0  0  0  0  0  0
   -4.9051    8.3910    1.2821 C   0  0  0  0  0  0  0  0  0  0  0  0
   -4.9173    9.2907   -0.2328 S   0  0  0  0  0  0  0  0  0  0  0  0
   -3.5672    9.6359   -0.5110 O   0  0  0  0  0  0  0  0  0  0  0  0
   -5.7156    8.5450   -1.1416 O   0  0  0  0  0  0  0  0  0  0  0  0
   -4.9008    9.0340    4.8829 N   0  0  0  0  0  0  0  0  0  0  0  0
   -0.3072    3.5873    0.0333 H   0  0  0  0  0  0  0  0  0  0  0  0
   -2.4296    4.7963    0.0412 H   0  0  0  0  0  0  0  0  0  0  0  0
   -2.4000   -0.1537    0.0122 H   0  0  0  0  0  0  0  0  0  0  0  0
    0.0021   -0.0041    0.0020 H   0  0  0  0  0  0  0  0  0  0  0  0
    0.8223    1.4622    0.0021 H   0  0  0  0  0  0  0  0  0  0  0  0
   -5.7808    3.1216    0.0483 H   0  0  0  0  0  0  0  0  0  0  0  0
   -4.9003    6.8333   -0.8700 H   0  0  0  0  0  0  0  0  0  0  0  0
   -4.8616    5.1849    2.4941 H   0  0  0  0  0  0  0  0  0  0  0  0
   -4.8671    6.4104    4.6069 H   0  0  0  0  0  0  0  0  0  0  0  0
   -4.9267   10.1347    2.4853 H   0  0  0  0  0  0  0  0  0  0  0  0
   -4.8901    8.5442    5.7200 H   0  0  0  0  0  0  0  0  0  0  0  0
   -4.9136   10.0039    4.8885 H   0  0  0  0  0  0  0  0  0  0  0  0
   -4.8621   -0.6367   -0.7054 O   0  0  0  0  0  1  0  0  0  0  0  0
   -5.6559   10.5962    0.0250 O   0  0  0  0  0  1  0  0  0  0  0  0
  1  6  2  0  0  0  0
  1  2  1  0  0  0  0
  1 24  1  0  0  0  0
  2  3  2  0  0  0  0
  2 25  1  0  0  0  0
  3  4  1  0  0  0  0
  3 11  1  0  0  0  0
  4  5  2  0  0  0  0
  4  8  1  0  0  0  0
  5  6  1  0  0  0  0
  5 26  1  0  0  0  0
  6  7  1  0  0  0  0
  7 27  1  0  0  0  0
  7 28  1  0  0  0  0
  8  9  2  0  0  0  0
  8 10  2  0  0  0  0
  8 36  1  0  0  0  0
 11 12  2  0  0  0  0
 11 29  1  0  0  0  0
 12 13  2  0  0  0  0
 13 14  1  0  0  0  0
 13 30  1  0  0  0  0
 14 19  2  0  0  0  0
 14 15  1  0  0  0  0
 15 16  2  0  0  0  0
 15 31  1  0  0  0  0
 16 17  1  0  0  0  0
 16 32  1  0  0  0  0
 17 18  2  0  0  0  0
 17 23  1  0  0  0  0
 18 19  1  0  0  0  0
 18 33  1  0  0  0  0
 19 20  1  0  0  0  0
 20 21  2  0  0  0  0
 20 22  2  0  0  0  0
 20 37  1  0  0  0  0
 23 34  1  0  0  0  0
 23 35  1  0  0  0  0
M  END
$$$$
ZINC41915220
 OpenBabel01252620473D

 30 32  0  0  0  0  0  0  0  0999 V2000
   -0.0154    1.3779    0.0096 C   0  0  0  0  0  0  0  0  0  0  0  0
    1.1734    2.0836    0.0021 C   0  0  0  0  0  0  0  0  0  0  0  0
    2.3769    1.4063   -0.0129 C   0  0  0  0  0  0  0  0  0  0  0  0
    2.3972    0.0215   -0.0206 C   0  0  0  0  0  0  0  0  0  0  0  0
    1.2087   -0.6841   -0.0132 C   0  0  0  0  0  0  0  0  0  0  0  0
    0.0029   -0.0030    0.0020 C   0  0  0  0  0  0  0  0  0  0  0  0
    1.4958   -2.1703   -0.0241 C   0  0  0  0  0  0  0  0  0  0  0  0
    2.9656   -2.2944   -0.4788 C   0  0  0  0  0  0  0  0  0  0  0  0
    3.5644   -0.9423   -0.0368 C   0  0  0  0  0  0  0  0  0  0  0  0
    3.6491   -3.4386    0.2246 C   0  0  0  0  0  0  0  0  0  0  0  0
    4.1168   -4.3599   -0.4226 O   0  0  0  0  0  0  0  0  0  0  0  0
    3.7344   -3.4428    1.4408 O   0  0  0  0  0  1  0  0  0  0  0  0
    3.0493   -2.4506   -1.9331 N   0  0  0  0  0  0  0  0  0  0  0  0
    1.8364   -2.5742   -2.7210 C   0  0  0  0  0  0  0  0  0  0  0  0
    2.0928   -2.2254   -4.2107 C   0  0  0  0  0  0  0  0  0  0  0  0
    3.8955   -2.6019   -4.2844 S   0  0  0  0  0  0  0  0  0  0  0  0
    4.2520   -2.4739   -2.5401 C   0  0  0  0  0  0  0  0  0  0  0  0
    5.3465   -2.4212   -2.0124 O   0  0  0  0  0  0  0  0  0  0  0  0
   -0.9573    1.9059    0.0259 H   0  0  0  0  0  0  0  0  0  0  0  0
    1.1610    3.1635    0.0076 H   0  0  0  0  0  0  0  0  0  0  0  0
    3.3051    1.9582   -0.0191 H   0  0  0  0  0  0  0  0  0  0  0  0
   -0.9262   -0.5536    0.0082 H   0  0  0  0  0  0  0  0  0  0  0  0
    1.3728   -2.5866    0.9757 H   0  0  0  0  0  0  0  0  0  0  0  0
    0.8376   -2.6775   -0.7294 H   0  0  0  0  0  0  0  0  0  0  0  0
    4.3184   -0.6111   -0.7508 H   0  0  0  0  0  0  0  0  0  0  0  0
    3.9977   -1.0282    0.9597 H   0  0  0  0  0  0  0  0  0  0  0  0
    1.4690   -3.5981   -2.6523 H   0  0  0  0  0  0  0  0  0  0  0  0
    1.0806   -1.8983   -2.3211 H   0  0  0  0  0  0  0  0  0  0  0  0
    1.5217   -2.8723   -4.8767 H   0  0  0  0  0  0  0  0  0  0  0  0
    1.8955   -1.1730   -4.4145 H   0  0  0  0  0  0  0  0  0  0  0  0
  1  6  2  0  0  0  0
  1  2  1  0  0  0  0
  1 19  1  0  0  0  0
  2  3  2  0  0  0  0
  2 20  1  0  0  0  0
  3  4  1  0  0  0  0
  3 21  1  0  0  0  0
  4  9  1  0  0  0  0
  4  5  2  0  0  0  0
  5  6  1  0  0  0  0
  5  7  1  0  0  0  0
  6 22  1  0  0  0  0
  7  8  1  0  0  0  0
  7 23  1  0  0  0  0
  7 24  1  0  0  0  0
  8  9  1  0  0  0  0
  8 10  1  0  0  0  0
  8 13  1  0  0  0  0
  9 25  1  0  0  0  0
  9 26  1  0  0  0  0
 10 11  2  0  0  0  0
 10 12  1  0  0  0  0
 13 17  1  0  0  0  0
 13 14  1  0  0  0  0
 14 15  1  0  0  0  0
 14 27  1  0  0  0  0
 14 28  1  0  0  0  0
 15 16  1  0  0  0  0
 15 29  1  0  0  0  0
 15 30  1  0  0  0  0
 16 17  1  0  0  0  0
 17 18  2  0  0  0  0
M  END
$$$$
ZINC15049906
 OpenBabel01252620473D

 43 45  0  0  0  0  0  0  0  0999 V2000
   -0.7859    2.5422    0.3157 C   0  0  0  0  0  0  0  0  0  0  0  0
   -0.0917    1.2178    0.1280 C   0  0  0  0  0  0  0  0  0  0  0  0
    0.1490    0.7373   -1.1418 C   0  0  0  0  0  0  0  0  0  0  0  0
    0.7859   -0.4789   -1.3163 C   0  0  0  0  0  0  0  0  0  0  0  0
    1.1868   -1.2226   -0.2196 C   0  0  0  0  0  0  0  0  0  0  0  0
    0.9537   -0.7564    1.0565 C   0  0  0  0  0  0  0  0  0  0  0  0
    0.3154    0.4752    1.2416 C   0  0  0  0  0  0  0  0  0  0  0  0
    0.0683    0.9829    2.5990 C   0  0  0  0  0  0  0  0  0  0  0  0
   -0.0521    0.1169    3.6352 C   0  0  0  0  0  0  0  0  0  0  0  0
   -0.1572    0.3899    5.0843 C   0  0  0  0  0  0  0  0  0  0  0  0
   -0.1446    1.5243    5.5241 O   0  0  0  0  0  0  0  0  0  0  0  0
   -0.2660   -0.6622    5.8781 N   0  0  0  0  0  0  0  0  0  0  0  0
   -0.2795   -1.9178    5.3865 C   0  0  0  0  0  0  0  0  0  0  0  0
   -0.3729   -2.9663    5.9957 O   0  0  0  0  0  0  0  0  0  0  0  0
   -0.1354   -1.6688    3.6242 S   0  0  0  0  0  0  0  0  0  0  0  0
   -0.3739   -0.4590    7.3249 C   0  0  0  0  0  0  0  0  0  0  0  0
   -1.8258   -0.3290    7.7071 C   0  0  0  0  0  0  0  0  0  0  0  0
   -2.6858   -0.3991    6.8548 O   0  0  0  0  0  0  0  0  0  0  0  0
   -2.1687   -0.1347    8.9959 N   0  0  0  0  0  0  0  0  0  0  0  0
   -3.5122   -0.1197    9.3648 C   0  0  0  0  0  0  0  0  0  0  0  0
   -4.4186   -0.9559    8.7193 C   0  0  0  0  0  0  0  0  0  0  0  0
   -5.7416   -0.9441    9.0794 C   0  0  0  0  0  0  0  0  0  0  0  0
   -6.1799   -0.0903   10.0976 C   0  0  0  0  0  0  0  0  0  0  0  0
   -5.2656    0.7483   10.7444 C   0  0  0  0  0  0  0  0  0  0  0  0
   -3.9434    0.7272   10.3818 C   0  0  0  0  0  0  0  0  0  0  0  0
   -7.5997   -0.0742   10.4870 C   0  0  0  0  0  0  0  0  0  0  0  0
   -8.3979   -0.8078    9.9202 O   0  0  0  0  0  0  0  0  0  0  0  0
   -7.9812    0.6729   11.3775 O   0  0  0  0  0  1  0  0  0  0  0  0
   -0.0439    3.3400    0.3476 H   0  0  0  0  0  0  0  0  0  0  0  0
   -1.4697    2.7150   -0.5153 H   0  0  0  0  0  0  0  0  0  0  0  0
   -1.3461    2.5294    1.2506 H   0  0  0  0  0  0  0  0  0  0  0  0
   -0.1607    1.3114   -2.0026 H   0  0  0  0  0  0  0  0  0  0  0  0
    0.9709   -0.8501   -2.3135 H   0  0  0  0  0  0  0  0  0  0  0  0
    1.6833   -2.1708   -0.3643 H   0  0  0  0  0  0  0  0  0  0  0  0
    1.2665   -1.3380    1.9110 H   0  0  0  0  0  0  0  0  0  0  0  0
   -0.0173    2.0457    2.7707 H   0  0  0  0  0  0  0  0  0  0  0  0
    0.0638   -1.3110    7.8452 H   0  0  0  0  0  0  0  0  0  0  0  0
    0.1583    0.4501    7.6048 H   0  0  0  0  0  0  0  0  0  0  0  0
   -1.4801   -0.0053    9.6668 H   0  0  0  0  0  0  0  0  0  0  0  0
   -4.0794   -1.6145    7.9334 H   0  0  0  0  0  0  0  0  0  0  0  0
   -6.4444   -1.5926    8.5775 H   0  0  0  0  0  0  0  0  0  0  0  0
   -5.6002    1.4089   11.5306 H   0  0  0  0  0  0  0  0  0  0  0  0
   -3.2362    1.3712   10.8834 H   0  0  0  0  0  0  0  0  0  0  0  0
  1  2  1  0  0  0  0
  1 29  1  0  0  0  0
  1 30  1  0  0  0  0
  1 31  1  0  0  0  0
  2  7  2  0  0  0  0
  2  3  1  0  0  0  0
  3  4  2  0  0  0  0
  3 32  1  0  0  0  0
  4  5  1  0  0  0  0
  4 33  1  0  0  0  0
  5  6  2  0  0  0  0
  5 34  1  0  0  0  0
  6  7  1  0  0  0  0
  6 35  1  0  0  0  0
  7  8  1  0  0  0  0
  8  9  2  0  0  0  0
  8 36  1  0  0  0  0
  9 15  1  0  0  0  0
  9 10  1  0  0  0  0
 10 11  2  0  0  0  0
 10 12  1  0  0  0  0
 12 13  1  0  0  0  0
 12 16  1  0  0  0  0
 13 14  2  0  0  0  0
 13 15  1  0  0  0  0
 16 17  1  0  0  0  0
 16 37  1  0  0  0  0
 16 38  1  0  0  0  0
 17 18  2  0  0  0  0
 17 19  1  0  0  0  0
 19 20  1  0  0  0  0
 19 39  1  0  0  0  0
 20 25  2  0  0  0  0
 20 21  1  0  0  0  0
 21 22  2  0  0  0  0
 21 40  1  0  0  0  0
 22 23  1  0  0  0  0
 22 41  1  0  0  0  0
 23 24  2  0  0  0  0
 23 26  1  0  0  0  0
 24 25  1  0  0  0  0
 24 42  1  0  0  0  0
 25 43  1  0  0  0  0
 26 27  2  0  0  0  0
 26 28  1  0  0  0  0
M  END
$$$$
ZINC66791803
 OpenBabel01252620473D

 46 48  0  0  1  0  0  0  0  0999 V2000
    0.1785    1.4411    0.0159 C   0  0  0  0  0  0  0  0  0  0  0  0
    0.0871   -0.0631    0.0247 C   0  0  0  0  0  3  0  0  0  0  0  0
    0.0915   -0.7531   -1.1707 C   0  0  0  0  0  0  0  0  0  0  0  0
    0.0072   -2.1370   -1.1557 C   0  0  0  0  0  0  0  0  0  0  0  0
   -0.0795   -2.7847    0.0740 C   0  0  0  0  0  0  0  0  0  0  0  0
   -0.0786   -2.0300    1.2351 C   0  0  0  0  0  0  0  0  0  0  0  0
    0.0089   -0.7078    1.1811 N   0  0  0  0  0  0  0  0  0  0  0  0
    0.0129    0.0133    2.3535 C   0  0  0  0  0  0  0  0  0  0  0  0
    1.1459    0.0188    3.1640 C   0  0  0  0  0  0  0  0  0  0  0  0
    2.2551   -0.6928    2.7945 N   0  0  0  0  0  0  0  0  0  0  0  0
    3.4466   -0.6870    3.6469 C   0  0  1  0  0  0  0  0  0  0  0  0
    3.5548    0.2922    4.1135 H   0  0  0  0  0  0  0  0  0  0  0  0
    3.3026   -1.7559    4.7320 C   0  0  0  0  0  0  0  0  0  0  0  0
    4.6831   -0.9863    2.7970 C   0  0  0  0  0  0  0  0  0  0  0  0
    5.3899   -2.3241    3.0246 C   0  0  0  0  0  0  0  0  0  0  0  0
    6.0370   -1.0249    3.5086 C   0  0  0  0  0  0  0  0  0  0  0  0
    1.1509    0.9419    4.6648 S   0  0  0  0  0  1  0  0  0  0  0  0
   -1.1295    0.7461    2.7340 C   0  0  0  0  0  0  0  0  0  0  0  0
   -1.0907    1.4702    3.7144 O   0  0  0  0  0  0  0  0  0  0  0  0
   -2.3752    0.6368    1.9441 C   0  0  0  0  0  0  0  0  0  0  0  0
   -2.7113   -0.5708    1.3298 C   0  0  0  0  0  0  0  0  0  0  0  0
   -3.8739   -0.6676    0.5950 C   0  0  0  0  0  0  0  0  0  0  0  0
   -4.7085    0.4318    0.4658 C   0  0  0  0  0  0  0  0  0  0  0  0
   -4.3791    1.6335    1.0735 C   0  0  0  0  0  0  0  0  0  0  0  0
   -3.2218    1.7392    1.8152 C   0  0  0  0  0  0  0  0  0  0  0  0
   -5.8466    0.3318   -0.2553 F   0  0  0  0  0  0  0  0  0  0  0  0
   -0.1642   -4.1399    0.1339 O   0  5  0  0  0  0  0  0  0  0  0  0
    1.2257    1.7417    0.0485 H   0  0  0  0  0  0  0  0  0  0  0  0
   -0.2824    1.8278   -0.8930 H   0  0  0  0  0  0  0  0  0  0  0  0
   -0.3418    1.8418    0.8859 H   0  0  0  0  0  0  0  0  0  0  0  0
    0.1596   -0.2207   -2.1079 H   0  0  0  0  0  0  0  0  0  0  0  0
    0.0084   -2.7001   -2.0773 H   0  0  0  0  0  0  0  0  0  0  0  0
   -0.1458   -2.5231    2.1936 H   0  0  0  0  0  0  0  0  0  0  0  0
    2.2524   -1.2010    1.9683 H   0  0  0  0  0  0  0  0  0  0  0  0
    3.1945   -2.7350    4.2654 H   0  0  0  0  0  0  0  0  0  0  0  0
    4.1891   -1.7515    5.3662 H   0  0  0  0  0  0  0  0  0  0  0  0
    2.4217   -1.5426    5.3375 H   0  0  0  0  0  0  0  0  0  0  0  0
    4.6602   -0.5955    1.7797 H   0  0  0  0  0  0  0  0  0  0  0  0
    4.9739   -2.9909    3.7799 H   0  0  0  0  0  0  0  0  0  0  0  0
    5.8320   -2.8137    2.1570 H   0  0  0  0  0  0  0  0  0  0  0  0
    6.9049   -0.6599    2.9594 H   0  0  0  0  0  0  0  0  0  0  0  0
    6.0468   -0.8370    4.5823 H   0  0  0  0  0  0  0  0  0  0  0  0
   -2.0616   -1.4277    1.4296 H   0  0  0  0  0  0  0  0  0  0  0  0
   -4.1346   -1.6013    0.1191 H   0  0  0  0  0  0  0  0  0  0  0  0
   -5.0324    2.4872    0.9692 H   0  0  0  0  0  0  0  0  0  0  0  0
   -2.9685    2.6745    2.2923 H   0  0  0  0  0  0  0  0  0  0  0  0
  1  2  1  0  0  0  0
  1 28  1  0  0  0  0
  1 29  1  0  0  0  0
  1 30  1  0  0  0  0
  2  7  1  0  0  0  0
  2  3  1  0  0  0  0
  3  4  2  0  0  0  0
  3 31  1  0  0  0  0
  4  5  1  0  0  0  0
  4 32  1  0  0  0  0
  5  6  2  0  0  0  0
  5 27  1  0  0  0  0
  6  7  1  0  0  0  0
  6 33  1  0  0  0  0
  7  8  1  0  0  0  0
  8  9  2  0  0  0  0
  8 18  1  0  0  0  0
  9 10  1  0  0  0  0
  9 17  1  0  0  0  0
 10 11  1  0  0  0  0
 10 34  1  0  0  0  0
 11 12  1  1  0  0  0
 11 13  1  0  0  0  0
 11 14  1  0  0  0  0
 13 35  1  0  0  0  0
 13 36  1  0  0  0  0
 13 37  1  0  0  0  0
 14 16  1  0  0  0  0
 14 15  1  0  0  0  0
 14 38  1  0  0  0  0
 15 16  1  0  0  0  0
 15 39  1  0  0  0  0
 15 40  1  0  0  0  0
 16 41  1  0  0  0  0
 16 42  1  0  0  0  0
 18 19  2  0  0  0  0
 18 20  1  0  0  0  0
 20 25  2  0  0  0  0
 20 21  1  0  0  0  0
 21 22  2  0  0  0  0
 21 43  1  0  0  0  0
 22 23  1  0  0  0  0
 22 44  1  0  0  0  0
 23 24  2  0  0  0  0
 23 26  1  0  0  0  0
 24 25  1  0  0  0  0
 24 45  1  0  0  0  0
 25 46  1  0  0  0  0
M  CHG  1  27  -1
M  END
$$$$
ZINC66735384
 OpenBabel01252620473D

 36 37  0  0  0  0  0  0  0  0999 V2000
   -2.1937    1.4701    0.6086 C   0  0  0  0  0  0  0  0  0  0  0  0
   -2.1690   -0.0367    0.6079 C   0  0  0  0  0  0  0  0  0  0  0  0
   -3.0608   -0.6581    1.1460 O   0  0  0  0  0  0  0  0  0  0  0  0
   -1.1558   -0.6938    0.0094 N   0  0  0  0  0  0  0  0  0  0  0  0
   -1.0812   -2.0889    0.0915 C   0  0  0  0  0  0  0  0  0  0  0  0
    0.1566   -2.7148    0.1777 C   0  0  0  0  0  0  0  0  0  0  0  0
    0.2352   -4.0921    0.2590 C   0  0  0  0  0  0  0  0  0  0  0  0
   -0.9152   -4.8550    0.2550 C   0  0  0  0  0  0  0  0  0  0  0  0
   -2.1624   -4.2360    0.1688 C   0  0  0  0  0  0  0  0  0  0  0  0
   -2.2422   -2.8462    0.0925 C   0  0  0  0  0  0  0  0  0  0  0  0
   -3.3974   -5.0518    0.1637 C   0  0  0  0  0  0  0  0  0  0  0  0
   -4.6054   -4.4495    0.0801 O   0  5  0  0  0  0  0  0  0  0  0  0
   -3.3208   -6.3472    0.2398 N   0  0  0  0  0  0  0  0  0  0  0  0
   -4.7025   -7.2600    0.2342 S   0  0  0  0  0  0  0  0  0  0  0  0
   -5.3954   -6.9554    1.4368 O   0  0  0  0  0  0  0  0  0  0  0  0
   -5.2930   -7.0952   -1.0478 O   0  0  0  0  0  0  0  0  0  0  0  0
   -4.2120   -8.9484    0.3494 C   0  0  0  0  0  0  0  0  0  0  0  0
   -3.9651   -9.6753   -0.8028 C   0  0  0  0  0  0  0  0  0  0  0  0
   -3.5801  -11.0005   -0.7234 C   0  0  0  0  0  0  0  0  0  0  0  0
   -3.4391  -11.6095    0.5101 C   0  0  0  0  0  0  0  0  0  0  0  0
   -3.6868  -10.8800    1.6774 C   0  0  0  0  0  0  0  0  0  0  0  0
   -4.0698   -9.5397    1.5867 C   0  0  0  0  0  0  0  0  0  0  0  0
   -3.5438  -11.5025    2.9591 C   0  0  0  0  0  0  0  0  0  0  0  0
   -3.4303  -11.9963    3.9758 N   0  0  0  0  0  0  0  0  0  0  0  0
   -3.0638  -12.9051    0.5873 F   0  0  0  0  0  0  0  0  0  0  0  0
   -3.0820    1.8187    1.1355 H   0  0  0  0  0  0  0  0  0  0  0  0
   -1.3024    1.8479    1.1095 H   0  0  0  0  0  0  0  0  0  0  0  0
   -2.2147    1.8336   -0.4188 H   0  0  0  0  0  0  0  0  0  0  0  0
   -0.4784   -0.1997   -0.4783 H   0  0  0  0  0  0  0  0  0  0  0  0
    1.0600   -2.1229    0.1809 H   0  0  0  0  0  0  0  0  0  0  0  0
    1.1999   -4.5732    0.3255 H   0  0  0  0  0  0  0  0  0  0  0  0
   -0.8498   -5.9311    0.3183 H   0  0  0  0  0  0  0  0  0  0  0  0
   -3.2053   -2.3615    0.0304 H   0  0  0  0  0  0  0  0  0  0  0  0
   -4.0741   -9.2045   -1.7686 H   0  0  0  0  0  0  0  0  0  0  0  0
   -3.3895  -11.5615   -1.6264 H   0  0  0  0  0  0  0  0  0  0  0  0
   -4.2585   -8.9690    2.4840 H   0  0  0  0  0  0  0  0  0  0  0  0
  1  2  1  0  0  0  0
  1 26  1  0  0  0  0
  1 27  1  0  0  0  0
  1 28  1  0  0  0  0
  2  3  2  0  0  0  0
  2  4  1  0  0  0  0
  4  5  1  0  0  0  0
  4 29  1  0  0  0  0
  5 10  2  0  0  0  0
  5  6  1  0  0  0  0
  6  7  2  0  0  0  0
  6 30  1  0  0  0  0
  7  8  1  0  0  0  0
  7 31  1  0  0  0  0
  8  9  2  0  0  0  0
  8 32  1  0  0  0  0
  9 10  1  0  0  0  0
  9 11  1  0  0  0  0
 10 33  1  0  0  0  0
 11 12  1  0  0  0  0
 11 13  2  0  0  0  0
 13 14  1  0  0  0  0
 14 15  2  0  0  0  0
 14 16  2  0  0  0  0
 14 17  1  0  0  0  0
 17 22  2  0  0  0  0
 17 18  1  0  0  0  0
 18 19  2  0  0  0  0
 18 34  1  0  0  0  0
 19 20  1  0  0  0  0
 19 35  1  0  0  0  0
 20 21  2  0  0  0  0
 20 25  1  0  0  0  0
 21 22  1  0  0  0  0
 21 23  1  0  0  0  0
 22 36  1  0  0  0  0
 23 24  3  0  0  0  0
M  CHG  1  12  -1
M  END
$$$$
ZINC52768015
 OpenBabel01252620473D

 38 38  0  0  0  0  0  0  0  0999 V2000
   -0.3111    1.3091   -0.1111 C   0  0  0  0  0  0  0  0  0  0  0  0
   -0.1955   -0.1508   -0.0738 N   0  0  0  0  0  0  0  0  0  0  0  0
   -0.1207   -0.8471    1.2130 C   0  0  0  0  0  0  0  0  0  0  0  0
   -0.1494   -1.0141   -1.4863 S   0  0  0  0  0  0  0  0  0  0  0  0
   -0.5937   -2.3273   -1.1743 O   0  0  0  0  0  0  0  0  0  0  0  0
   -0.7806   -0.2109   -2.4740 O   0  0  0  0  0  0  0  0  0  0  0  0
    1.4411   -1.1451   -1.9283 N   0  0  0  0  0  0  0  0  0  0  0  0
    1.7636   -1.7834   -3.0141 C   0  0  0  0  0  0  0  0  0  0  0  0
    0.8001   -2.3404   -3.7825 O   0  5  0  0  0  0  0  0  0  0  0  0
    3.1847   -1.9004   -3.4090 C   0  0  0  0  0  0  0  0  0  0  0  0
    4.1813   -1.3317   -2.6150 C   0  0  0  0  0  0  0  0  0  0  0  0
    5.5043   -1.4443   -2.9878 C   0  0  0  0  0  0  0  0  0  0  0  0
    5.8446   -2.1199   -4.1480 C   0  0  0  0  0  0  0  0  0  0  0  0
    4.8598   -2.6862   -4.9397 C   0  0  0  0  0  0  0  0  0  0  0  0
    3.5336   -2.5847   -4.5735 C   0  0  0  0  0  0  0  0  0  0  0  0
    5.3019   -3.5439   -6.4140 S   0  0  0  0  0  0  0  0  0  0  0  0
    6.3787   -4.4067   -6.0745 O   0  0  0  0  0  0  0  0  0  0  0  0
    4.0915   -4.0238   -6.9831 O   0  0  0  0  0  0  0  0  0  0  0  0
    5.9091   -2.4219   -7.4698 N   0  0  0  0  0  0  0  0  0  0  0  0
    7.3569   -2.3023   -7.6588 C   0  0  0  0  0  0  0  0  0  0  0  0
    5.0290   -1.5782   -8.1899 O   0  0  0  0  0  0  0  0  0  0  0  0
    4.7210   -0.3534   -7.5213 C   0  0  0  0  0  0  0  0  0  0  0  0
    7.5119   -2.2568   -4.6117 Cl  0  0  0  0  0  0  0  0  0  0  0  0
    0.6846    1.7519   -0.1363 H   0  0  0  0  0  0  0  0  0  0  0  0
   -0.8639    1.6072   -1.0020 H   0  0  0  0  0  0  0  0  0  0  0  0
   -0.8401    1.6545    0.7771 H   0  0  0  0  0  0  0  0  0  0  0  0
   -0.1655   -0.1192    2.0231 H   0  0  0  0  0  0  0  0  0  0  0  0
   -0.9576   -1.5399    1.3004 H   0  0  0  0  0  0  0  0  0  0  0  0
    0.8166   -1.4001    1.2729 H   0  0  0  0  0  0  0  0  0  0  0  0
    3.9171   -0.8040   -1.7105 H   0  0  0  0  0  0  0  0  0  0  0  0
    6.2765   -1.0045   -2.3740 H   0  0  0  0  0  0  0  0  0  0  0  0
    2.7666   -3.0303   -5.1896 H   0  0  0  0  0  0  0  0  0  0  0  0
    7.6600   -2.8896   -8.5256 H   0  0  0  0  0  0  0  0  0  0  0  0
    7.6171   -1.2561   -7.8198 H   0  0  0  0  0  0  0  0  0  0  0  0
    7.8710   -2.6722   -6.7716 H   0  0  0  0  0  0  0  0  0  0  0  0
    4.2468   -0.5711   -6.5643 H   0  0  0  0  0  0  0  0  0  0  0  0
    5.6392    0.2091   -7.3521 H   0  0  0  0  0  0  0  0  0  0  0  0
    4.0421    0.2361   -8.1374 H   0  0  0  0  0  0  0  0  0  0  0  0
  1  2  1  0  0  0  0
  1 24  1  0  0  0  0
  1 25  1  0  0  0  0
  1 26  1  0  0  0  0
  2  3  1  0  0  0  0
  2  4  1  0  0  0  0
  3 27  1  0  0  0  0
  3 28  1  0  0  0  0
  3 29  1  0  0  0  0
  4  5  2  0  0  0  0
  4  6  2  0  0  0  0
  4  7  1  0  0  0  0
  7  8  2  0  0  0  0
  8  9  1  0  0  0  0
  8 10  1  0  0  0  0
 10 15  2  0  0  0  0
 10 11  1  0  0  0  0
 11 12  2  0  0  0  0
 11 30  1  0  0  0  0
 12 13  1  0  0  0  0
 12 31  1  0  0  0  0
 13 14  2  0  0  0  0
 13 23  1  0  0  0  0
 14 15  1  0  0  0  0
 14 16  1  0  0  0  0
 15 32  1  0  0  0  0
 16 17  2  0  0  0  0
 16 18  2  0  0  0  0
 16 19  1  0  0  0  0
 19 20  1  0  0  0  0
 19 21  1  0  0  0  0
 20 33  1  0  0  0  0
 20 34  1  0  0  0  0
 20 35  1  0  0  0  0
 21 22  1  0  0  0  0
 22 36  1  0  0  0  0
 22 37  1  0  0  0  0
 22 38  1  0  0  0  0
M  CHG  1   9  -1
M  END
$$$$
ZINC37732238
 OpenBabel01252620473D

 32 33  0  0  0  0  0  0  0  0999 V2000
    0.5008    1.6472    0.6585 C   0  0  0  0  0  0  0  0  0  0  0  0
    0.3854    0.2337    0.4838 O   0  0  0  0  0  0  0  0  0  0  0  0
   -0.8688   -0.2745    0.3858 C   0  0  0  0  0  0  0  0  0  0  0  0
   -1.0459   -1.6424    0.2207 C   0  0  0  0  0  0  0  0  0  0  0  0
   -2.3303   -2.1480    0.1226 C   0  0  0  0  0  0  0  0  0  0  0  0
   -3.3975   -1.2629    0.1934 C   0  0  0  0  0  0  0  0  0  0  0  0
   -3.1474    0.0847    0.3584 C   0  0  0  0  0  0  0  0  0  0  0  0
   -1.9112    0.5365    0.4539 N   0  0  0  0  0  0  0  0  0  0  0  0
    0.1448   -2.5634    0.1489 C   0  0  0  0  0  0  0  0  0  0  0  0
    0.6368   -2.8318    1.5025 N   0  0  0  0  0  0  0  0  0  0  0  0
    1.6753   -4.0934    1.7709 S   0  0  0  0  0  0  0  0  0  0  0  0
    1.9908   -4.0720    3.1563 O   0  0  0  0  0  0  0  0  0  0  0  0
    1.1055   -5.2304    1.1369 O   0  0  0  0  0  0  0  0  0  0  0  0
    3.1687   -3.7316    0.9087 C   0  0  0  0  0  0  0  0  0  0  0  0
    4.0310   -2.6823    1.1695 C   0  0  0  0  0  0  0  0  0  0  0  0
    5.0928   -2.7759    0.2396 C   0  0  0  0  0  0  0  0  0  0  0  0
    4.8723   -3.8122   -0.5205 N   0  0  0  0  0  0  0  0  0  0  0  0
    3.6814   -4.4263   -0.1176 N   0  0  0  0  0  0  0  0  0  0  0  0
    3.2909   -5.2202   -0.5153 H   0  0  0  0  0  0  0  0  0  0  0  0
    3.8734   -1.6614    2.2156 C   0  0  0  0  0  0  0  0  0  0  0  0
    4.7608   -0.8415    2.4089 O   0  0  0  0  0  0  0  0  0  0  0  0
    2.8549   -1.6317    2.8929 O   0  0  0  0  0  1  0  0  0  0  0  0
    1.5540    1.9206    0.7222 H   0  0  0  0  0  0  0  0  0  0  0  0
    0.0438    2.1567   -0.1898 H   0  0  0  0  0  0  0  0  0  0  0  0
   -0.0074    1.9426    1.5764 H   0  0  0  0  0  0  0  0  0  0  0  0
   -2.4987   -3.2069   -0.0066 H   0  0  0  0  0  0  0  0  0  0  0  0
   -4.4124   -1.6247    0.1199 H   0  0  0  0  0  0  0  0  0  0  0  0
   -3.9741    0.7774    0.4141 H   0  0  0  0  0  0  0  0  0  0  0  0
   -0.1489   -3.5008   -0.3234 H   0  0  0  0  0  0  0  0  0  0  0  0
    0.9335   -2.0924   -0.4377 H   0  0  0  0  0  0  0  0  0  0  0  0
    0.3544   -2.2704    2.2414 H   0  0  0  0  0  0  0  0  0  0  0  0
    5.9375   -2.1065    0.1710 H   0  0  0  0  0  0  0  0  0  0  0  0
  1  2  1  0  0  0  0
  1 23  1  0  0  0  0
  1 24  1  0  0  0  0
  1 25  1  0  0  0  0
  2  3  1  0  0  0  0
  3  8  2  0  0  0  0
  3  4  1  0  0  0  0
  4  5  2  0  0  0  0
  4  9  1  0  0  0  0
  5  6  1  0  0  0  0
  5 26  1  0  0  0  0
  6  7  2  0  0  0  0
  6 27  1  0  0  0  0
  7  8  1  0  0  0  0
  7 28  1  0  0  0  0
  9 10  1  0  0  0  0
  9 29  1  0  0  0  0
  9 30  1  0  0  0  0
 10 11  1  0  0  0  0
 10 31  1  0  0  0  0
 11 12  2  0  0  0  0
 11 13  2  0  0  0  0
 11 14  1  0  0  0  0
 14 18  1  0  0  0  0
 14 15  2  0  0  0  0
 15 16  1  0  0  0  0
 15 20  1  0  0  0  0
 16 17  2  0  0  0  0
 16 32  1  0  0  0  0
 17 18  1  0  0  0  0
 18 19  1  0  0  0  0
 20 21  2  0  0  0  0
 20 22  1  0  0  0  0
M  END
$$$$
ZINC16321309
 OpenBabel01252620473D

 49 50  0  0  0  0  0  0  0  0999 V2000
   -2.2803   -0.0691   -0.5827 C   0  0  0  0  0  0  0  0  0  0  0  0
   -2.2880    1.4378   -0.5928 C   0  0  0  0  0  0  0  0  0  0  0  0
   -3.2071    2.0361   -1.1107 O   0  0  0  0  0  0  0  0  0  0  0  0
   -1.2762    2.1206   -0.0213 N   0  0  0  0  0  0  0  0  0  0  0  0
   -1.2366    3.5166   -0.1095 C   0  0  0  0  0  0  0  0  0  0  0  0
   -0.0173    4.1726   -0.2171 C   0  0  0  0  0  0  0  0  0  0  0  0
    0.0180    5.5501   -0.3106 C   0  0  0  0  0  0  0  0  0  0  0  0
   -1.1582    6.2768   -0.2843 C   0  0  0  0  0  0  0  0  0  0  0  0
   -2.3735    5.6269   -0.1710 C   0  0  0  0  0  0  0  0  0  0  0  0
   -2.4160    4.2492   -0.0838 C   0  0  0  0  0  0  0  0  0  0  0  0
   -1.1083    8.0346   -0.3960 S   0  0  0  0  0  0  0  0  0  0  0  0
    0.1128    8.3659   -1.0428 O   0  0  0  0  0  0  0  0  0  0  0  0
   -2.3724    8.4456   -0.8982 O   0  0  0  0  0  0  0  0  0  0  0  0
   -0.9996    8.6204    1.1491 N   0  0  0  0  0  0  0  0  0  0  0  0
    0.3144    8.8390    1.7589 C   0  0  0  0  0  0  0  0  0  0  0  0
   -2.2175    8.9202    1.9062 C   0  0  0  0  0  0  0  0  0  0  0  0
   -2.5795    7.7358    2.7649 C   0  0  0  0  0  0  0  0  0  0  0  0
   -1.8882    6.7393    2.7463 O   0  0  0  0  0  0  0  0  0  0  0  0
   -3.6714    7.7838    3.5535 N   0  0  0  0  0  0  0  0  0  0  0  0
   -4.0079    6.6828    4.3518 N   0  0  0  0  0  0  0  0  0  0  0  0
   -5.0601    6.7291    5.1117 C   0  0  0  0  0  0  0  0  0  0  0  0
   -5.4137    5.5723    5.9504 C   0  0  0  0  0  0  0  0  0  0  0  0
   -4.5636    4.4671    6.0183 C   0  0  0  0  0  0  0  0  0  0  0  0
   -4.8978    3.3881    6.8096 C   0  0  0  0  0  0  0  0  0  0  0  0
   -6.0800    3.3860    7.5331 C   0  0  0  0  0  0  0  0  0  0  0  0
   -6.9370    4.4651    7.4765 C   0  0  0  0  0  0  0  0  0  0  0  0
   -6.6164    5.5699    6.6866 C   0  0  0  0  0  0  0  0  0  0  0  0
   -7.5287    6.7260    6.6218 C   0  0  0  0  0  0  0  0  0  0  0  0
   -7.2011    7.7251    6.0128 O   0  0  0  0  0  0  0  0  0  0  0  0
   -3.1747   -0.4404   -1.0831 H   0  0  0  0  0  0  0  0  0  0  0  0
   -1.3949   -0.4315   -1.1051 H   0  0  0  0  0  0  0  0  0  0  0  0
   -2.2658   -0.4256    0.4473 H   0  0  0  0  0  0  0  0  0  0  0  0
   -0.5755    1.6444    0.4511 H   0  0  0  0  0  0  0  0  0  0  0  0
    0.9019    3.6060   -0.2325 H   0  0  0  0  0  0  0  0  0  0  0  0
    0.9656    6.0606   -0.3999 H   0  0  0  0  0  0  0  0  0  0  0  0
   -3.2904    6.1972   -0.1511 H   0  0  0  0  0  0  0  0  0  0  0  0
   -3.3656    3.7421    0.0039 H   0  0  0  0  0  0  0  0  0  0  0  0
    0.6498    9.8538    1.5452 H   0  0  0  0  0  0  0  0  0  0  0  0
    0.2420    8.6998    2.8376 H   0  0  0  0  0  0  0  0  0  0  0  0
    1.0289    8.1259    1.3476 H   0  0  0  0  0  0  0  0  0  0  0  0
   -2.0462    9.7900    2.5404 H   0  0  0  0  0  0  0  0  0  0  0  0
   -3.0331    9.1300    1.2142 H   0  0  0  0  0  0  0  0  0  0  0  0
   -4.2243    8.5807    3.5684 H   0  0  0  0  0  0  0  0  0  0  0  0
   -5.6757    7.6163    5.1283 H   0  0  0  0  0  0  0  0  0  0  0  0
   -3.6427    4.4587    5.4543 H   0  0  0  0  0  0  0  0  0  0  0  0
   -4.2355    2.5366    6.8623 H   0  0  0  0  0  0  0  0  0  0  0  0
   -6.3318    2.5331    8.1460 H   0  0  0  0  0  0  0  0  0  0  0  0
   -7.8563    4.4550    8.0433 H   0  0  0  0  0  0  0  0  0  0  0  0
   -8.7262    6.6748    7.2381 O   0  0  0  0  0  1  0  0  0  0  0  0
  1  2  1  0  0  0  0
  1 30  1  0  0  0  0
  1 31  1  0  0  0  0
  1 32  1  0  0  0  0
  2  3  2  0  0  0  0
  2  4  1  0  0  0  0
  4  5  1  0  0  0  0
  4 33  1  0  0  0  0
  5 10  2  0  0  0  0
  5  6  1  0  0  0  0
  6  7  2  0  0  0  0
  6 34  1  0  0  0  0
  7  8  1  0  0  0  0
  7 35  1  0  0  0  0
  8  9  2  0  0  0  0
  8 11  1  0  0  0  0
  9 10  1  0  0  0  0
  9 36  1  0  0  0  0
 10 37  1  0  0  0  0
 11 12  2  0  0  0  0
 11 13  2  0  0  0  0
 11 14  1  0  0  0  0
 14 15  1  0  0  0  0
 14 16  1  0  0  0  0
 15 38  1  0  0  0  0
 15 39  1  0  0  0  0
 15 40  1  0  0  0  0
 16 17  1  0  0  0  0
 16 41  1  0  0  0  0
 16 42  1  0  0  0  0
 17 18  2  0  0  0  0
 17 19  1  0  0  0  0
 19 20  1  0  0  0  0
 19 43  1  0  0  0  0
 20 21  2  0  0  0  0
 21 22  1  0  0  0  0
 21 44  1  0  0  0  0
 22 27  2  0  0  0  0
 22 23  1  0  0  0  0
 23 24  2  0  0  0  0
 23 45  1  0  0  0  0
 24 25  1  0  0  0  0
 24 46  1  0  0  0  0
 25 26  2  0  0  0  0
 25 47  1  0  0  0  0
 26 27  1  0  0  0  0
 26 48  1  0  0  0  0
 27 28  1  0  0  0  0
 28 29  2  0  0  0  0
 28 49  1  0  0  0  0
M  END
$$$$
ZINC40067223
 OpenBabel01252620473D

 52 54  0  0  1  0  0  0  0  0999 V2000
   -0.2923   -5.7459    2.5614 C   0  0  0  0  0  0  0  0  0  0  0  0
   -0.8360   -6.0691    1.4142 C   0  0  0  0  0  0  0  0  0  0  0  0
   -2.0918   -5.3751    0.9534 C   0  0  0  0  0  0  0  0  0  0  0  0
   -1.9357   -4.9605   -0.4052 O   0  0  0  0  0  0  0  0  0  0  0  0
   -2.9425   -4.2246   -0.9452 C   0  0  0  0  0  0  0  0  0  0  0  0
   -4.1022   -3.9948   -0.2189 C   0  0  0  0  0  0  0  0  0  0  0  0
   -5.1238   -3.2461   -0.7698 C   0  0  0  0  0  0  0  0  0  0  0  0
   -4.9915   -2.7255   -2.0441 C   0  0  0  0  0  0  0  0  0  0  0  0
   -3.8373   -2.9534   -2.7700 C   0  0  0  0  0  0  0  0  0  0  0  0
   -2.8101   -3.6969   -2.2212 C   0  0  0  0  0  0  0  0  0  0  0  0
   -1.5496   -3.9397   -3.0107 C   0  0  2  0  0  0  0  0  0  0  0  0
   -0.6773   -3.8315   -2.3660 H   0  0  0  0  0  0  0  0  0  0  0  0
   -1.4652   -2.9698   -4.1661 C   0  0  0  0  0  0  0  0  0  0  0  0
   -1.4473   -3.7109   -5.2973 C   0  0  0  0  0  0  0  0  0  0  0  0
   -1.5166   -5.1424   -4.9417 C   0  0  0  0  0  0  0  0  0  0  0  0
   -1.5193   -6.0595   -5.7388 O   0  0  0  0  0  0  0  0  0  0  0  0
   -1.5759   -5.2821   -3.6035 N   0  0  0  0  0  0  0  0  0  0  0  0
   -1.6525   -6.5476   -2.8695 C   0  0  0  0  0  0  0  0  0  0  0  0
   -3.1118   -6.9990   -2.7821 C   0  0  0  0  0  0  0  0  0  0  0  0
   -3.5948   -7.3053   -4.0917 O   0  0  0  0  0  0  0  0  0  0  0  0
   -4.9559   -7.7395   -4.1223 C   0  0  0  0  0  0  0  0  0  0  0  0
   -5.3637   -8.0378   -5.5665 C   0  0  0  0  0  0  0  0  0  0  0  0
   -4.6031   -9.1434   -6.0575 O   0  0  0  0  0  0  0  0  0  0  0  0
   -1.3769   -3.2183   -6.5564 O   0  5  0  0  0  0  0  0  0  0  0  0
   -1.4133   -1.5055   -4.0780 C   0  0  0  0  0  0  0  0  0  0  0  0
   -1.4598   -0.8321   -5.0924 O   0  0  0  0  0  0  0  0  0  0  0  0
   -1.3055   -0.8536   -2.7702 C   0  0  0  0  0  0  0  0  0  0  0  0
   -1.3617    0.4993   -2.4586 C   0  0  0  0  0  0  0  0  0  0  0  0
   -1.2279    0.8101   -1.1281 C   0  0  0  0  0  0  0  0  0  0  0  0
   -1.0547   -0.1931   -0.2301 C   0  0  0  0  0  0  0  0  0  0  0  0
   -1.0758   -1.5901   -1.1630 S   0  0  0  0  0  0  0  0  0  0  0  0
    0.5599   -6.2977    2.9296 H   0  0  0  0  0  0  0  0  0  0  0  0
   -0.6936   -4.9248    3.1369 H   0  0  0  0  0  0  0  0  0  0  0  0
   -0.3843   -6.8330    0.7987 H   0  0  0  0  0  0  0  0  0  0  0  0
   -2.9350   -6.0616    1.0292 H   0  0  0  0  0  0  0  0  0  0  0  0
   -2.2759   -4.5028    1.5806 H   0  0  0  0  0  0  0  0  0  0  0  0
   -4.2061   -4.4014    0.7762 H   0  0  0  0  0  0  0  0  0  0  0  0
   -6.0268   -3.0673   -0.2050 H   0  0  0  0  0  0  0  0  0  0  0  0
   -5.7915   -2.1403   -2.4731 H   0  0  0  0  0  0  0  0  0  0  0  0
   -3.7365   -2.5461   -3.7652 H   0  0  0  0  0  0  0  0  0  0  0  0
   -1.0682   -7.3059   -3.3907 H   0  0  0  0  0  0  0  0  0  0  0  0
   -1.2542   -6.4093   -1.8643 H   0  0  0  0  0  0  0  0  0  0  0  0
   -3.1806   -7.8862   -2.1527 H   0  0  0  0  0  0  0  0  0  0  0  0
   -3.7141   -6.1997   -2.3505 H   0  0  0  0  0  0  0  0  0  0  0  0
   -5.0630   -8.6421   -3.5207 H   0  0  0  0  0  0  0  0  0  0  0  0
   -5.5965   -6.9556   -3.7184 H   0  0  0  0  0  0  0  0  0  0  0  0
   -6.4252   -8.2831   -5.6010 H   0  0  0  0  0  0  0  0  0  0  0  0
   -5.1729   -7.1617   -6.1863 H   0  0  0  0  0  0  0  0  0  0  0  0
   -4.8097   -9.3888   -6.9698 H   0  0  0  0  0  0  0  0  0  0  0  0
   -1.5013    1.2578   -3.2147 H   0  0  0  0  0  0  0  0  0  0  0  0
   -1.2597    1.8387   -0.8004 H   0  0  0  0  0  0  0  0  0  0  0  0
   -0.9352   -0.1120    0.8402 H   0  0  0  0  0  0  0  0  0  0  0  0
  1  2  2  0  0  0  0
  1 32  1  0  0  0  0
  1 33  1  0  0  0  0
  2  3  1  0  0  0  0
  2 34  1  0  0  0  0
  3  4  1  0  0  0  0
  3 35  1  0  0  0  0
  3 36  1  0  0  0  0
  4  5  1  0  0  0  0
  5 10  2  0  0  0  0
  5  6  1  0  0  0  0
  6  7  2  0  0  0  0
  6 37  1  0  0  0  0
  7  8  1  0  0  0  0
  7 38  1  0  0  0  0
  8  9  2  0  0  0  0
  8 39  1  0  0  0  0
  9 10  1  0  0  0  0
  9 40  1  0  0  0  0
 10 11  1  0  0  0  0
 11 12  1  1  0  0  0
 11 17  1  0  0  0  0
 11 13  1  0  0  0  0
 13 14  2  0  0  0  0
 13 25  1  0  0  0  0
 14 15  1  0  0  0  0
 14 24  1  0  0  0  0
 15 16  2  0  0  0  0
 15 17  1  0  0  0  0
 17 18  1  0  0  0  0
 18 19  1  0  0  0  0
 18 41  1  0  0  0  0
 18 42  1  0  0  0  0
 19 20  1  0  0  0  0
 19 43  1  0  0  0  0
 19 44  1  0  0  0  0
 20 21  1  0  0  0  0
 21 22  1  0  0  0  0
 21 45  1  0  0  0  0
 21 46  1  0  0  0  0
 22 23  1  0  0  0  0
 22 47  1  0  0  0  0
 22 48  1  0  0  0  0
 23 49  1  0  0  0  0
 25 26  2  0  0  0  0
 25 27  1  0  0  0  0
 27 31  1  0  0  0  0
 27 28  2  0  0  0  0
 28 29  1  0  0  0  0
 28 50  1  0  0  0  0
 29 30  2  0  0  0  0
 29 51  1  0  0  0  0
 30 31  1  0  0  0  0
 30 52  1  0  0  0  0
M  CHG  1  24  -1
M  END
$$$$
ZINC36007469
 OpenBabel01252620473D

 50 52  0  0  1  0  0  0  0  0999 V2000
   -0.1482    1.6875    0.2048 C   0  0  0  0  0  0  0  0  0  0  0  0
   -0.1140    0.1817    0.1558 C   0  0  0  0  0  0  0  0  0  0  0  0
   -0.1110   -0.6016   -1.0037 C   0  0  0  0  0  0  0  0  0  0  0  0
   -0.0757   -1.9016   -0.6277 C   0  0  0  0  0  0  0  0  0  0  0  0
   -0.0569   -1.9389    0.7221 N   0  0  0  0  0  0  0  0  0  0  0  0
   -0.0764   -0.6188    1.1902 N   0  0  0  0  0  0  0  0  0  0  0  0
   -0.0177   -3.1466    1.5504 C   0  0  1  0  0  0  0  0  0  0  0  0
   -0.0056   -4.0274    0.9083 H   0  0  0  0  0  0  0  0  0  0  0  0
    1.2430   -3.1300    2.4170 C   0  0  0  0  0  0  0  0  0  0  0  0
   -1.2360   -3.1878    2.4365 C   0  0  0  0  0  0  0  0  0  0  0  0
   -2.0562   -2.2960    2.3816 O   0  0  0  0  0  0  0  0  0  0  0  0
   -1.4140   -4.2155    3.2901 N   0  0  0  0  0  0  0  0  0  0  0  0
   -2.5983   -4.2554    4.1516 C   0  0  1  0  0  0  0  0  0  0  0  0
   -3.4367   -3.6962    3.7365 H   0  0  0  0  0  0  0  0  0  0  0  0
   -2.9733   -5.6609    4.5912 C   0  0  2  0  0  0  0  0  0  0  0  0
   -4.0378   -5.8950    4.5860 H   0  0  0  0  0  0  0  0  0  0  0  0
   -2.3906   -5.2145    5.8921 N   0  0  0  0  0  0  0  0  0  0  0  0
   -2.3009   -3.9043    5.5923 C   0  0  0  0  0  0  0  0  0  0  0  0
   -2.0782   -2.8836    6.2086 O   0  0  0  0  0  0  0  0  0  0  0  0
   -1.9668   -6.0541    6.9437 C   0  0  0  0  0  0  0  0  0  0  0  0
   -1.6971   -7.3302    6.7158 C   0  0  0  0  0  0  0  0  0  0  0  0
   -1.8231   -8.0937    5.4377 C   0  0  0  0  0  0  0  0  0  0  0  0
   -1.8911   -6.9931    3.9715 S   0  0  0  0  0  0  0  0  0  0  0  0
   -1.1970   -8.1154    7.9009 C   0  0  0  0  0  0  0  0  0  0  0  0
   -0.8419   -9.4349    7.4825 O   0  0  0  0  0  0  0  0  0  0  0  0
   -0.4723  -10.2992    8.4407 C   0  0  0  0  0  0  0  0  0  0  0  0
   -0.4509   -9.9471    9.5963 O   0  0  0  0  0  0  0  0  0  0  0  0
   -0.0839  -11.7086    8.0751 C   0  0  0  0  0  0  0  0  0  0  0  0
   -1.8232   -5.5077    8.3028 C   0  0  0  0  0  0  0  0  0  0  0  0
   -1.5594   -6.2527    9.2368 O   0  0  0  0  0  0  0  0  0  0  0  0
   -1.9675   -4.3087    8.4986 O   0  0  0  0  0  1  0  0  0  0  0  0
   -0.0600   -3.0933   -1.5500 C   0  0  0  0  0  0  0  0  0  0  0  0
   -0.1470   -0.0107   -2.6356 Cl  0  0  0  0  0  0  0  0  0  0  0  0
    0.8708    2.0745    0.1981 H   0  0  0  0  0  0  0  0  0  0  0  0
   -0.6867    2.0672   -0.6636 H   0  0  0  0  0  0  0  0  0  0  0  0
   -0.6534    2.0101    1.1152 H   0  0  0  0  0  0  0  0  0  0  0  0
    2.1242   -3.1002    1.7761 H   0  0  0  0  0  0  0  0  0  0  0  0
    1.2309   -2.2492    3.0591 H   0  0  0  0  0  0  0  0  0  0  0  0
    1.2722   -4.0285    3.0333 H   0  0  0  0  0  0  0  0  0  0  0  0
   -0.7580   -4.9287    3.3340 H   0  0  0  0  0  0  0  0  0  0  0  0
   -0.9702   -8.7654    5.3401 H   0  0  0  0  0  0  0  0  0  0  0  0
   -2.7378   -8.6858    5.4667 H   0  0  0  0  0  0  0  0  0  0  0  0
   -0.3221   -7.6200    8.3219 H   0  0  0  0  0  0  0  0  0  0  0  0
   -1.9809   -8.1723    8.6560 H   0  0  0  0  0  0  0  0  0  0  0  0
    0.9873  -11.7509    7.8782 H   0  0  0  0  0  0  0  0  0  0  0  0
   -0.3285  -12.3784    8.8996 H   0  0  0  0  0  0  0  0  0  0  0  0
   -0.6297  -12.0161    7.1831 H   0  0  0  0  0  0  0  0  0  0  0  0
    0.9711   -3.3568   -1.7856 H   0  0  0  0  0  0  0  0  0  0  0  0
   -0.5482   -3.9368   -1.0620 H   0  0  0  0  0  0  0  0  0  0  0  0
   -0.5915   -2.8481   -2.4695 H   0  0  0  0  0  0  0  0  0  0  0  0
  1  2  1  0  0  0  0
  1 34  1  0  0  0  0
  1 35  1  0  0  0  0
  1 36  1  0  0  0  0
  2  6  2  0  0  0  0
  2  3  1  0  0  0  0
  3  4  2  0  0  0  0
  3 33  1  0  0  0  0
  4  5  1  0  0  0  0
  4 32  1  0  0  0  0
  5  6  1  0  0  0  0
  5  7  1  0  0  0  0
  7  8  1  6  0  0  0
  7  9  1  0  0  0  0
  7 10  1  0  0  0  0
  9 37  1  0  0  0  0
  9 38  1  0  0  0  0
  9 39  1  0  0  0  0
 10 11  2  0  0  0  0
 10 12  1  0  0  0  0
 12 13  1  0  0  0  0
 12 40  1  0  0  0  0
 13 14  1  6  0  0  0
 13 18  1  0  0  0  0
 13 15  1  0  0  0  0
 15 16  1  1  0  0  0
 15 23  1  0  0  0  0
 15 17  1  0  0  0  0
 17 18  1  0  0  0  0
 17 20  1  0  0  0  0
 18 19  2  0  0  0  0
 20 21  2  0  0  0  0
 20 29  1  0  0  0  0
 21 22  1  0  0  0  0
 21 24  1  0  0  0  0
 22 23  1  0  0  0  0
 22 41  1  0  0  0  0
 22 42  1  0  0  0  0
 24 25  1  0  0  0  0
 24 43  1  0  0  0  0
 24 44  1  0  0  0  0
 25 26  1  0  0  0  0
 26 27  2  0  0  0  0
 26 28  1  0  0  0  0
 28 45  1  0  0  0  0
 28 46  1  0  0  0  0
 28 47  1  0  0  0  0
 29 30  2  0  0  0  0
 29 31  1  0  0  0  0
 32 48  1  0  0  0  0
 32 49  1  0  0  0  0
 32 50  1  0  0  0  0
M  END
$$$$
ZINC26574580
 OpenBabel01252620473D

 35 37  0  0  0  0  0  0  0  0999 V2000
   -1.7950   -0.8554   -1.4218 C   0  0  0  0  0  0  0  0  0  0  0  0
   -1.2746   -0.7226    0.0108 C   0  0  0  0  0  0  0  0  0  0  0  0
    0.0021   -0.0041    0.0020 N   0  0  0  0  0  0  0  0  0  0  0  0
    1.1369   -0.7143   -0.0126 C   0  0  0  0  0  0  0  0  0  0  0  0
    2.3800   -0.1143   -0.0212 C   0  0  0  0  0  0  0  0  0  0  0  0
    2.4608    1.3552   -0.0141 C   0  0  0  0  0  0  0  0  0  0  0  0
    3.5342    1.9320   -0.0217 O   0  0  0  0  0  0  0  0  0  0  0  0
    1.1882    2.1005    0.0020 C   0  0  0  0  0  0  0  0  0  0  0  0
   -0.0166    1.3754    0.0096 C   0  0  0  0  0  0  0  0  0  0  0  0
   -1.2250    2.0619    0.0307 C   0  0  0  0  0  0  0  0  0  0  0  0
   -1.2329    3.4511    0.0339 C   0  0  0  0  0  0  0  0  0  0  0  0
   -0.0295    4.1669    0.0267 C   0  0  0  0  0  0  0  0  0  0  0  0
    1.1732    3.4961    0.0106 C   0  0  0  0  0  0  0  0  0  0  0  0
   -0.0482    5.5177    0.0351 F   0  0  0  0  0  0  0  0  0  0  0  0
   -2.5239    4.1806    0.0503 C   0  0  0  0  0  0  0  0  0  0  0  0
   -3.5349    3.8718   -0.8647 C   0  0  0  0  0  0  0  0  0  0  0  0
   -4.7226    4.5722   -0.8114 C   0  0  0  0  0  0  0  0  0  0  0  0
   -4.9060    5.5274    0.0798 N   0  0  0  0  0  0  0  0  0  0  0  0
   -3.9764    5.8532    0.9572 C   0  0  0  0  0  0  0  0  0  0  0  0
   -2.7612    5.1998    0.9773 C   0  0  0  0  0  0  0  0  0  0  0  0
    3.6028   -0.9294   -0.0368 C   0  0  0  0  0  0  0  0  0  0  0  0
    4.6925   -0.3906   -0.0443 O   0  0  0  0  0  0  0  0  0  0  0  0
    3.5160   -2.2747   -0.0427 O   0  0  0  0  0  1  0  0  0  0  0  0
   -2.7536   -1.3949   -1.4151 H   0  0  0  0  0  0  0  0  0  0  0  0
   -1.0648   -1.4127   -2.0270 H   0  0  0  0  0  0  0  0  0  0  0  0
   -1.9407    0.1459   -1.8532 H   0  0  0  0  0  0  0  0  0  0  0  0
   -2.0048   -0.1653    0.6160 H   0  0  0  0  0  0  0  0  0  0  0  0
   -1.1289   -1.7239    0.4423 H   0  0  0  0  0  0  0  0  0  0  0  0
    1.0777   -1.7927   -0.0175 H   0  0  0  0  0  0  0  0  0  0  0  0
   -2.1568    1.5160    0.0408 H   0  0  0  0  0  0  0  0  0  0  0  0
    2.1015    4.0480    0.0051 H   0  0  0  0  0  0  0  0  0  0  0  0
   -3.3898    3.0942   -1.5999 H   0  0  0  0  0  0  0  0  0  0  0  0
   -5.5111    4.3379   -1.5111 H   0  0  0  0  0  0  0  0  0  0  0  0
   -4.1689    6.6422    1.6692 H   0  0  0  0  0  0  0  0  0  0  0  0
   -2.0047    5.4715    1.6986 H   0  0  0  0  0  0  0  0  0  0  0  0
  1  2  1  0  0  0  0
  1 24  1  0  0  0  0
  1 25  1  0  0  0  0
  1 26  1  0  0  0  0
  2  3  1  0  0  0  0
  2 27  1  0  0  0  0
  2 28  1  0  0  0  0
  3  9  1  0  0  0  0
  3  4  1  0  0  0  0
  4  5  2  0  0  0  0
  4 29  1  0  0  0  0
  5  6  1  0  0  0  0
  5 21  1  0  0  0  0
  6  7  2  0  0  0  0
  6  8  1  0  0  0  0
  8 13  2  0  0  0  0
  8  9  1  0  0  0  0
  9 10  2  0  0  0  0
 10 11  1  0  0  0  0
 10 30  1  0  0  0  0
 11 12  2  0  0  0  0
 11 15  1  0  0  0  0
 12 13  1  0  0  0  0
 12 14  1  0  0  0  0
 13 31  1  0  0  0  0
 15 20  2  0  0  0  0
 15 16  1  0  0  0  0
 16 17  2  0  0  0  0
 16 32  1  0  0  0  0
 17 18  1  0  0  0  0
 17 33  1  0  0  0  0
 18 19  2  0  0  0  0
 19 20  1  0  0  0  0
 19 34  1  0  0  0  0
 20 35  1  0  0  0  0
 21 22  2  0  0  0  0
 21 23  1  0  0  0  0
M  END
$$$$
ZINC09576525
 OpenBabel01252620473D

 26 27  0  0  1  0  0  0  0  0999 V2000
    3.0860    0.9610    5.8295 C   0  0  0  0  0  0  0  0  0  0  0  0
    4.3241    0.4670    5.4423 C   0  0  0  0  0  0  0  0  0  0  0  0
    4.6051    0.3175    4.0974 C   0  0  0  0  0  0  0  0  0  0  0  0
    3.6534    0.6607    3.1680 C   0  0  0  0  0  0  0  0  0  0  0  0
    2.3846    1.1659    3.5329 C   0  0  0  0  0  0  0  0  0  0  0  0
    2.1371    1.3036    4.9168 C   0  0  0  0  0  0  0  0  0  0  0  0
    1.5751    1.4504    2.4916 N   0  0  0  0  0  0  0  0  0  0  0  0
    1.9388    1.2718    1.2529 C   0  0  0  0  0  0  0  0  0  0  0  0
    3.5498    0.6401    1.3960 S   0  0  0  0  0  0  0  0  0  0  0  0
    1.1489    1.5422   -0.0017 C   0  0  2  0  0  0  0  0  0  0  0  0
    1.9429    1.0616   -1.2180 C   0  0  0  0  0  0  0  0  0  0  0  0
    2.1680   -0.4249   -1.1155 C   0  0  0  0  0  0  0  0  0  0  0  0
    1.7300   -1.0386   -0.1714 O   0  0  0  0  0  0  0  0  0  0  0  0
    0.8863    3.0445   -0.1251 C   0  0  0  0  0  0  0  0  0  0  0  0
    0.2057    3.4939    1.0115 F   0  0  0  0  0  0  0  0  0  0  0  0
    2.1046    3.7230   -0.2378 F   0  0  0  0  0  0  0  0  0  0  0  0
    0.1088    3.2901   -1.2619 F   0  0  0  0  0  0  0  0  0  0  0  0
   -0.0967    0.8445    0.0600 O   0  0  0  0  0  0  0  0  0  0  0  0
    2.8706    1.0762    6.8815 H   0  0  0  0  0  0  0  0  0  0  0  0
    5.0616    0.2022    6.1856 H   0  0  0  0  0  0  0  0  0  0  0  0
    5.5636   -0.0658    3.7800 H   0  0  0  0  0  0  0  0  0  0  0  0
    1.1845    1.6848    5.2539 H   0  0  0  0  0  0  0  0  0  0  0  0
    1.3840    1.2827   -2.1273 H   0  0  0  0  0  0  0  0  0  0  0  0
    2.9048    1.5734   -1.2492 H   0  0  0  0  0  0  0  0  0  0  0  0
   -0.0065   -0.1150    0.1391 H   0  0  0  0  0  0  0  0  0  0  0  0
    2.8550   -1.0673   -2.0732 O   0  0  0  0  0  1  0  0  0  0  0  0
  1  6  2  0  0  0  0
  1  2  1  0  0  0  0
  1 19  1  0  0  0  0
  2  3  2  0  0  0  0
  2 20  1  0  0  0  0
  3  4  1  0  0  0  0
  3 21  1  0  0  0  0
  4  9  1  0  0  0  0
  4  5  2  0  0  0  0
  5  6  1  0  0  0  0
  5  7  1  0  0  0  0
  6 22  1  0  0  0  0
  7  8  2  0  0  0  0
  8  9  1  0  0  0  0
  8 10  1  0  0  0  0
 10 11  1  0  0  0  0
 10 14  1  0  0  0  0
 10 18  1  1  0  0  0
 11 12  1  0  0  0  0
 11 23  1  0  0  0  0
 11 24  1  0  0  0  0
 12 13  2  0  0  0  0
 12 26  1  0  0  0  0
 14 15  1  0  0  0  0
 14 16  1  0  0  0  0
 14 17  1  0  0  0  0
 18 25  1  0  0  0  0
M  END
$$$$
ZINC64795825
 OpenBabel01252620473D

 51 54  0  0  1  0  0  0  0  0999 V2000
   -0.0173    1.4248    0.0099 C   0  0  0  0  0  0  0  0  0  0  0  0
    0.0021   -0.0041    0.0020 O   0  0  0  0  0  0  0  0  0  0  0  0
   -1.2011   -0.6379    0.0101 C   0  0  0  0  0  0  0  0  0  0  0  0
   -2.3743    0.0994    0.0195 C   0  0  0  0  0  0  0  0  0  0  0  0
   -3.5965   -0.5465    0.0272 C   0  0  0  0  0  0  0  0  0  0  0  0
   -3.6519   -1.9279    0.0261 C   0  0  0  0  0  0  0  0  0  0  0  0
   -2.4852   -2.6694    0.0172 C   0  0  0  0  0  0  0  0  0  0  0  0
   -1.2569   -2.0283    0.0032 C   0  0  0  0  0  0  0  0  0  0  0  0
   -0.1083   -2.7563   -0.0116 O   0  0  0  0  0  0  0  0  0  0  0  0
   -0.2420   -4.1790   -0.0180 C   0  0  0  0  0  0  0  0  0  0  0  0
    1.1255   -4.8120   -0.0344 C   0  0  0  0  0  0  0  0  0  0  0  0
    1.3905   -5.8194    0.7600 C   0  0  0  0  0  0  0  0  0  0  0  0
   -4.9869   -2.6268    0.0350 C   0  0  2  0  0  0  0  0  0  0  0  0
   -4.8366   -3.7064    0.0327 H   0  0  0  0  0  0  0  0  0  0  0  0
   -5.7948   -2.2146   -1.2016 C   0  0  0  0  0  0  0  0  0  0  0  0
   -6.3654   -0.8361   -1.0253 C   0  0  0  0  0  0  0  0  0  0  0  0
   -6.3959   -0.0940   -1.9844 O   0  0  0  0  0  0  0  0  0  0  0  0
   -6.8440   -0.3891    0.1481 N   0  0  0  0  0  0  0  0  0  0  0  0
   -6.6307   -1.1702    1.3196 C   0  0  0  0  0  0  0  0  0  0  0  0
   -5.7592   -2.2264    1.2565 C   0  0  0  0  0  0  0  0  0  0  0  0
   -5.7595   -2.9189    2.7708 S   0  0  0  0  0  0  0  0  0  0  0  0
   -6.8959   -1.8125    3.5871 C   0  0  0  0  0  0  0  0  0  0  0  0
   -7.2338   -0.9266    2.5523 C   0  0  0  0  0  0  0  0  0  0  0  0
   -8.1728    0.1993    2.7573 C   0  0  0  0  0  0  0  0  0  0  0  0
   -7.7238    1.5153    2.6422 C   0  0  0  0  0  0  0  0  0  0  0  0
   -8.6034    2.5605    2.8338 C   0  0  0  0  0  0  0  0  0  0  0  0
   -9.9296    2.3056    3.1398 C   0  0  0  0  0  0  0  0  0  0  0  0
  -10.3807    1.0015    3.2557 C   0  0  0  0  0  0  0  0  0  0  0  0
   -9.5114   -0.0516    3.0605 C   0  0  0  0  0  0  0  0  0  0  0  0
  -11.0309    3.6260    3.3796 Cl  0  0  0  0  0  0  0  0  0  0  0  0
   -7.3419   -1.8256    4.9279 C   0  0  0  0  0  0  0  0  0  0  0  0
   -6.9362   -2.6863    5.7004 O   0  0  0  0  0  0  0  0  0  0  0  0
   -8.1346   -0.9762    5.3183 O   0  0  0  0  0  1  0  0  0  0  0  0
    1.0053    1.8021    0.0021 H   0  0  0  0  0  0  0  0  0  0  0  0
   -0.5445    1.7859   -0.8732 H   0  0  0  0  0  0  0  0  0  0  0  0
   -0.5275    1.7763    0.9067 H   0  0  0  0  0  0  0  0  0  0  0  0
   -2.3338    1.1787    0.0211 H   0  0  0  0  0  0  0  0  0  0  0  0
   -4.5102    0.0294    0.0345 H   0  0  0  0  0  0  0  0  0  0  0  0
   -2.5312   -3.7485    0.0167 H   0  0  0  0  0  0  0  0  0  0  0  0
   -0.7791   -4.4975    0.8754 H   0  0  0  0  0  0  0  0  0  0  0  0
   -0.7960   -4.4879   -0.9044 H   0  0  0  0  0  0  0  0  0  0  0  0
    1.8871   -4.4351   -0.7010 H   0  0  0  0  0  0  0  0  0  0  0  0
    2.3706   -6.2731    0.7482 H   0  0  0  0  0  0  0  0  0  0  0  0
    0.6290   -6.1964    1.4266 H   0  0  0  0  0  0  0  0  0  0  0  0
   -5.1439   -2.2249   -2.0759 H   0  0  0  0  0  0  0  0  0  0  0  0
   -6.6087   -2.9239   -1.3520 H   0  0  0  0  0  0  0  0  0  0  0  0
   -7.3261    0.4512    0.1964 H   0  0  0  0  0  0  0  0  0  0  0  0
   -6.6896    1.7152    2.4040 H   0  0  0  0  0  0  0  0  0  0  0  0
   -8.2569    3.5796    2.7454 H   0  0  0  0  0  0  0  0  0  0  0  0
  -11.4159    0.8086    3.4952 H   0  0  0  0  0  0  0  0  0  0  0  0
   -9.8652   -1.0683    3.1468 H   0  0  0  0  0  0  0  0  0  0  0  0
  1  2  1  0  0  0  0
  1 34  1  0  0  0  0
  1 35  1  0  0  0  0
  1 36  1  0  0  0  0
  2  3  1  0  0  0  0
  3  8  2  0  0  0  0
  3  4  1  0  0  0  0
  4  5  2  0  0  0  0
  4 37  1  0  0  0  0
  5  6  1  0  0  0  0
  5 38  1  0  0  0  0
  6  7  2  0  0  0  0
  6 13  1  0  0  0  0
  7  8  1  0  0  0  0
  7 39  1  0  0  0  0
  8  9  1  0  0  0  0
  9 10  1  0  0  0  0
 10 11  1  0  0  0  0
 10 40  1  0  0  0  0
 10 41  1  0  0  0  0
 11 12  2  0  0  0  0
 11 42  1  0  0  0  0
 12 43  1  0  0  0  0
 12 44  1  0  0  0  0
 13 14  1  6  0  0  0
 13 20  1  0  0  0  0
 13 15  1  0  0  0  0
 15 16  1  0  0  0  0
 15 45  1  0  0  0  0
 15 46  1  0  0  0  0
 16 17  2  0  0  0  0
 16 18  1  0  0  0  0
 18 19  1  0  0  0  0
 18 47  1  0  0  0  0
 19 23  1  0  0  0  0
 19 20  2  0  0  0  0
 20 21  1  0  0  0  0
 21 22  1  0  0  0  0
 22 23  2  0  0  0  0
 22 31  1  0  0  0  0
 23 24  1  0  0  0  0
 24 29  2  0  0  0  0
 24 25  1  0  0  0  0
 25 26  2  0  0  0  0
 25 48  1  0  0  0  0
 26 27  1  0  0  0  0
 26 49  1  0  0  0  0
 27 28  2  0  0  0  0
 27 30  1  0  0  0  0
 28 29  1  0  0  0  0
 28 50  1  0  0  0  0
 29 51  1  0  0  0  0
 31 32  2  0  0  0  0
 31 33  1  0  0  0  0
M  END
$$$$
ZINC21075586
 OpenBabel01252620473D

 56 59  0  0  0  0  0  0  0  0999 V2000
    5.6273   -7.6454   -0.1505 C   0  0  0  0  0  0  0  0  0  0  0  0
    6.5459   -7.1661   -1.0662 C   0  0  0  0  0  0  0  0  0  0  0  0
    6.9524   -5.8472   -1.0131 C   0  0  0  0  0  0  0  0  0  0  0  0
    6.4376   -5.0022   -0.0387 C   0  0  0  0  0  0  0  0  0  0  0  0
    5.5192   -5.4880    0.8827 C   0  0  0  0  0  0  0  0  0  0  0  0
    5.1128   -6.8065    0.8210 C   0  0  0  0  0  0  0  0  0  0  0  0
    6.8480   -3.6646    0.0181 N   0  0  0  0  0  0  0  0  0  0  0  0
    8.1638   -3.3508    0.3799 C   0  0  0  0  0  0  0  0  0  0  0  0
    9.0321   -2.8066   -0.5572 C   0  0  0  0  0  0  0  0  0  0  0  0
   10.3279   -2.4937   -0.1959 C   0  0  0  0  0  0  0  0  0  0  0  0
   10.7640   -2.7315    1.0946 C   0  0  0  0  0  0  0  0  0  0  0  0
    9.9033   -3.2782    2.0287 C   0  0  0  0  0  0  0  0  0  0  0  0
    8.6048   -3.5884    1.6751 C   0  0  0  0  0  0  0  0  0  0  0  0
    5.9765   -2.6793   -0.2754 C   0  0  0  0  0  0  0  0  0  0  0  0
    6.3550   -1.5278   -0.3183 O   0  0  0  0  0  0  0  0  0  0  0  0
    4.5318   -3.0083   -0.5504 C   0  0  0  0  0  0  0  0  0  0  0  0
    3.7561   -1.7165   -0.8159 C   0  0  0  0  0  0  0  0  0  0  0  0
    2.0210   -2.1116   -1.1461 S   0  0  0  0  0  0  0  0  0  0  0  0
    1.4008   -0.5365   -1.4018 C   0  0  0  0  0  0  0  0  0  0  0  0
    0.1062   -0.2149   -1.6977 N   0  0  0  0  0  0  0  0  0  0  0  0
    0.0708    1.1529   -1.8153 C   0  0  0  0  0  0  0  0  0  0  0  0
    1.3179    1.6062   -1.5918 N   0  0  0  0  0  0  0  0  0  0  0  0
    2.0997    0.6145   -1.3489 N   0  0  0  0  0  0  0  0  0  0  0  0
   -1.0029    1.8960   -2.1042 N   0  0  0  0  0  0  0  0  0  0  0  0
   -0.8965    3.1791   -2.1847 N   0  0  0  0  0  0  0  0  0  0  0  0
   -1.9544    3.9113   -2.4693 C   0  0  0  0  0  0  0  0  0  0  0  0
   -1.8376    5.3205   -2.5578 C   0  0  0  0  0  0  0  0  0  0  0  0
   -2.9623    6.1074   -2.8610 C   0  0  0  0  0  0  0  0  0  0  0  0
   -2.8423    7.4638   -2.9446 C   0  0  0  0  0  0  0  0  0  0  0  0
   -1.6147    8.0785   -2.7317 C   0  0  0  0  0  0  0  0  0  0  0  0
   -0.4953    7.3269   -2.4320 C   0  0  0  0  0  0  0  0  0  0  0  0
   -0.5913    5.9470   -2.3363 C   0  0  0  0  0  0  0  0  0  0  0  0
    0.5025    5.2052   -2.0373 O   0  5  0  0  0  0  0  0  0  0  0  0
   -4.0299    8.2874   -3.2643 N   0  0  0  0  0  4  0  0  0  0  0  0
   -5.1963    7.7103   -3.4666 O   0  0  0  0  0  0  0  0  0  0  0  0
   -3.9201    9.5972   -3.3463 O   0  5  0  0  0  0  0  0  0  0  0  0
    5.3108   -8.6771   -0.1943 H   0  0  0  0  0  0  0  0  0  0  0  0
    6.9457   -7.8236   -1.8240 H   0  0  0  0  0  0  0  0  0  0  0  0
    7.6701   -5.4735   -1.7284 H   0  0  0  0  0  0  0  0  0  0  0  0
    5.1201   -4.8344    1.6442 H   0  0  0  0  0  0  0  0  0  0  0  0
    4.3958   -7.1840    1.5350 H   0  0  0  0  0  0  0  0  0  0  0  0
    8.6933   -2.6244   -1.5664 H   0  0  0  0  0  0  0  0  0  0  0  0
   11.0026   -2.0669   -0.9233 H   0  0  0  0  0  0  0  0  0  0  0  0
   11.7789   -2.4894    1.3737 H   0  0  0  0  0  0  0  0  0  0  0  0
   10.2468   -3.4624    3.0359 H   0  0  0  0  0  0  0  0  0  0  0  0
    7.9331   -4.0156    2.4050 H   0  0  0  0  0  0  0  0  0  0  0  0
    4.4662   -3.6631   -1.4318 H   0  0  0  0  0  0  0  0  0  0  0  0
    4.1005   -3.5224    0.3212 H   0  0  0  0  0  0  0  0  0  0  0  0
    3.8217   -1.0617    0.0655 H   0  0  0  0  0  0  0  0  0  0  0  0
    4.1874   -1.2024   -1.6875 H   0  0  0  0  0  0  0  0  0  0  0  0
   -1.9767    1.4132   -2.2732 H   0  0  0  0  0  0  0  0  0  0  0  0
   -2.9282    3.4284   -2.6382 H   0  0  0  0  0  0  0  0  0  0  0  0
   -3.9207    5.6384   -3.0281 H   0  0  0  0  0  0  0  0  0  0  0  0
   -1.5351    9.1533   -2.8009 H   0  0  0  0  0  0  0  0  0  0  0  0
    0.4543    7.8145   -2.2679 H   0  0  0  0  0  0  0  0  0  0  0  0
    1.5269    2.6853   -1.6352 H   0  0  0  0  0  0  0  0  0  0  0  0
  1  6  2  0  0  0  0
  1  2  1  0  0  0  0
  1 37  1  0  0  0  0
  2  3  2  0  0  0  0
  2 38  1  0  0  0  0
  3  4  1  0  0  0  0
  3 39  1  0  0  0  0
  4  5  2  0  0  0  0
  4  7  1  0  0  0  0
  5  6  1  0  0  0  0
  5 40  1  0  0  0  0
  6 41  1  0  0  0  0
  7  8  1  0  0  0  0
  7 14  1  0  0  0  0
  8 13  2  0  0  0  0
  8  9  1  0  0  0  0
  9 10  2  0  0  0  0
  9 42  1  0  0  0  0
 10 11  1  0  0  0  0
 10 43  1  0  0  0  0
 11 12  2  0  0  0  0
 11 44  1  0  0  0  0
 12 13  1  0  0  0  0
 12 45  1  0  0  0  0
 13 46  1  0  0  0  0
 14 15  2  0  0  0  0
 14 16  1  0  0  0  0
 16 17  1  0  0  0  0
 16 47  1  0  0  0  0
 16 48  1  0  0  0  0
 17 18  1  0  0  0  0
 17 49  1  0  0  0  0
 17 50  1  0  0  0  0
 18 19  1  0  0  0  0
 19 23  2  0  0  0  0
 19 20  1  0  0  0  0
 20 21  2  0  0  0  0
 21 22  1  0  0  0  0
 21 24  1  0  0  0  0
 22 23  1  0  0  0  0
 22 56  1  0  0  0  0
 24 25  1  0  0  0  0
 24 51  1  0  0  0  0
 25 26  2  0  0  0  0
 26 27  1  0  0  0  0
 26 52  1  0  0  0  0
 27 32  2  0  0  0  0
 27 28  1  0  0  0  0
 28 29  2  0  0  0  0
 28 53  1  0  0  0  0
 29 30  1  0  0  0  0
 29 34  1  0  0  0  0
 30 31  2  0  0  0  0
 30 54  1  0  0  0  0
 31 32  1  0  0  0  0
 31 55  1  0  0  0  0
 32 33  1  0  0  0  0
 34 35  2  0  0  0  0
 34 36  1  0  0  0  0
M  CHG  2  33  -1  36  -1
M  END
$$$$
ZINC60380293
 OpenBabel01252620473D

 42 45  0  0  1  0  0  0  0  0999 V2000
   -0.0187    1.5258    0.0104 C   0  0  0  0  0  0  0  0  0  0  0  0
    0.0021   -0.0041    0.0020 C   0  0  1  0  0  0  0  0  0  0  0  0
    0.5293   -0.3651    0.8851 H   0  0  0  0  0  0  0  0  0  0  0  0
   -1.4117   -0.5257    0.0127 C   0  0  0  0  0  0  0  0  0  0  0  0
   -1.9273   -0.9011   -1.0187 O   0  0  0  0  0  0  0  0  0  0  0  0
   -2.1031   -0.5750    1.1686 N   0  0  0  0  0  0  0  0  0  0  0  0
   -3.4043   -1.0550    1.1784 C   0  0  0  0  0  0  0  0  0  0  0  0
   -4.0948   -1.5041    0.1324 N   0  0  0  0  0  2  0  0  0  0  0  0
   -5.2591   -1.8574    0.5587 N   0  0  0  0  0  0  0  0  0  0  0  0
   -5.3266   -1.6484    1.8270 N   0  0  0  0  0  0  0  0  0  0  0  0
   -4.2050   -1.1622    2.2367 N   0  0  0  0  0  0  0  0  0  0  0  0
    0.8511   -0.5891   -1.4904 S   0  0  0  0  0  0  0  0  0  0  0  0
    2.5579   -0.0120   -1.2791 C   0  0  0  0  0  0  0  0  0  0  0  0
    3.3826   -0.4371   -2.4666 C   0  0  0  0  0  0  0  0  0  0  0  0
    4.7002   -0.1132   -2.5142 N   0  0  0  0  0  0  0  0  0  0  0  0
    5.0933    0.3879   -1.7826 H   0  0  0  0  0  0  0  0  0  0  0  0
    5.4717   -0.4741   -3.5562 C   0  0  0  0  0  0  0  0  0  0  0  0
    6.6535   -0.1762   -3.5836 O   0  0  0  0  0  0  0  0  0  0  0  0
    4.8836   -1.2135   -4.6317 C   0  0  0  0  0  0  0  0  0  0  0  0
    5.5015   -1.7134   -5.8540 C   0  0  0  0  0  0  0  0  0  0  0  0
    4.7359   -2.3968   -6.7387 C   0  0  0  0  0  0  0  0  0  0  0  0
    3.1272   -2.4064   -5.9711 S   0  0  0  0  0  0  0  0  0  0  0  0
    3.5160   -1.5018   -4.4951 C   0  0  0  0  0  0  0  0  0  0  0  0
    2.8188   -1.1154   -3.4298 N   0  0  0  0  0  0  0  0  0  0  0  0
    6.9399   -1.4781   -6.1239 C   0  0  0  0  0  0  0  0  0  0  0  0
    7.4739   -0.1958   -6.0035 C   0  0  0  0  0  0  0  0  0  0  0  0
    8.8139    0.0171   -6.2556 C   0  0  0  0  0  0  0  0  0  0  0  0
    9.6269   -1.0388   -6.6271 C   0  0  0  0  0  0  0  0  0  0  0  0
    9.1026   -2.3132   -6.7481 C   0  0  0  0  0  0  0  0  0  0  0  0
    7.7653   -2.5392   -6.4935 C   0  0  0  0  0  0  0  0  0  0  0  0
    1.0039    1.9031    0.0027 H   0  0  0  0  0  0  0  0  0  0  0  0
   -0.5459    1.8868   -0.8726 H   0  0  0  0  0  0  0  0  0  0  0  0
   -0.5289    1.8773    0.9072 H   0  0  0  0  0  0  0  0  0  0  0  0
   -1.6907   -0.2747    1.9936 H   0  0  0  0  0  0  0  0  0  0  0  0
    2.5668    1.0752   -1.2010 H   0  0  0  0  0  0  0  0  0  0  0  0
    2.9780   -0.4449   -0.3712 H   0  0  0  0  0  0  0  0  0  0  0  0
    5.0298   -2.8312   -7.6828 H   0  0  0  0  0  0  0  0  0  0  0  0
    6.8401    0.6292   -5.7139 H   0  0  0  0  0  0  0  0  0  0  0  0
    9.2286    1.0100   -6.1630 H   0  0  0  0  0  0  0  0  0  0  0  0
   10.6749   -0.8673   -6.8237 H   0  0  0  0  0  0  0  0  0  0  0  0
    9.7421   -3.1337   -7.0385 H   0  0  0  0  0  0  0  0  0  0  0  0
    7.3580   -3.5353   -6.5843 H   0  0  0  0  0  0  0  0  0  0  0  0
  1  2  1  0  0  0  0
  1 31  1  0  0  0  0
  1 32  1  0  0  0  0
  1 33  1  0  0  0  0
  2  3  1  1  0  0  0
  2  4  1  0  0  0  0
  2 12  1  0  0  0  0
  4  5  2  0  0  0  0
  4  6  1  0  0  0  0
  6  7  1  0  0  0  0
  6 34  1  0  0  0  0
  7 11  2  0  0  0  0
  7  8  1  0  0  0  0
  8  9  1  0  0  0  0
  9 10  2  0  0  0  0
 10 11  1  0  0  0  0
 12 13  1  0  0  0  0
 13 14  1  0  0  0  0
 13 35  1  0  0  0  0
 13 36  1  0  0  0  0
 14 24  2  0  0  0  0
 14 15  1  0  0  0  0
 15 16  1  0  0  0  0
 15 17  1  0  0  0  0
 17 18  2  0  0  0  0
 17 19  1  0  0  0  0
 19 23  2  0  0  0  0
 19 20  1  0  0  0  0
 20 21  2  0  0  0  0
 20 25  1  0  0  0  0
 21 22  1  0  0  0  0
 21 37  1  0  0  0  0
 22 23  1  0  0  0  0
 23 24  1  0  0  0  0
 25 30  2  0  0  0  0
 25 26  1  0  0  0  0
 26 27  2  0  0  0  0
 26 38  1  0  0  0  0
 27 28  1  0  0  0  0
 27 39  1  0  0  0  0
 28 29  2  0  0  0  0
 28 40  1  0  0  0  0
 29 30  1  0  0  0  0
 29 41  1  0  0  0  0
 30 42  1  0  0  0  0
M  END
$$$$
ZINC66313620
 OpenBabel01252620473D

 45 48  0  0  1  0  0  0  0  0999 V2000
   -0.0184    1.5028    0.0103 C   0  0  0  0  0  0  0  0  0  0  0  0
    0.0021   -0.0041    0.0020 C   0  0  0  0  0  0  0  0  0  0  0  0
    0.0060   -0.7187   -1.1704 C   0  0  0  0  0  0  0  0  0  0  0  0
    0.0317   -2.3888   -0.5391 S   0  0  0  0  0  0  0  0  0  0  0  0
    0.0348   -2.0177    1.1024 C   0  0  0  0  0  0  0  0  0  0  0  0
    0.0226   -0.7007    1.1175 N   0  0  0  0  0  0  0  0  0  0  0  0
    0.0514   -2.8904    2.1818 N   0  0  0  0  0  0  0  0  0  0  0  0
    0.0512   -2.4065    3.4397 C   0  0  0  0  0  0  0  0  0  0  0  0
    0.0365   -1.2086    3.6286 O   0  0  0  0  0  0  0  0  0  0  0  0
    0.0691   -3.3539    4.6115 C   0  0  1  0  0  0  0  0  0  0  0  0
   -0.4753   -4.2875    4.4696 H   0  0  0  0  0  0  0  0  0  0  0  0
    1.3388   -3.3991    5.4640 C   0  0  0  0  0  0  0  0  0  0  0  0
    0.0700   -2.7428    6.0141 C   0  0  1  0  0  0  0  0  0  0  0  0
   -0.4735   -3.2745    6.7951 H   0  0  0  0  0  0  0  0  0  0  0  0
    0.0529   -1.2395    6.1181 C   0  0  0  0  0  0  0  0  0  0  0  0
    1.0748   -0.4962    5.5578 C   0  0  0  0  0  0  0  0  0  0  0  0
    1.0591    0.8828    5.6532 C   0  0  0  0  0  0  0  0  0  0  0  0
    0.0212    1.5185    6.3086 C   0  0  0  0  0  0  0  0  0  0  0  0
   -1.0012    0.7752    6.8681 C   0  0  0  0  0  0  0  0  0  0  0  0
   -0.9877   -0.6035    6.7690 C   0  0  0  0  0  0  0  0  0  0  0  0
   -0.0078   -0.2406   -2.5619 C   0  0  0  0  0  0  0  0  0  0  0  0
   -0.0215    1.0133   -2.9582 N   0  0  0  0  0  0  0  0  0  0  0  0
   -0.0304    1.0676   -4.2420 N   0  0  0  0  0  0  0  0  0  0  0  0
   -0.0230   -0.1446   -4.7465 C   0  0  0  0  0  0  0  0  0  0  0  0
   -0.0305   -0.5641   -6.4578 S   0  0  0  0  0  1  0  0  0  0  0  0
   -0.0028   -1.0213   -3.6965 N   0  0  0  0  0  0  0  0  0  0  0  0
    0.0173   -2.4846   -3.7647 C   0  0  0  0  0  0  0  0  0  0  0  0
   -1.3964   -3.0063   -3.7806 C   0  0  0  0  0  0  0  0  0  0  0  0
   -1.7910   -3.7996   -4.7455 C   0  0  0  0  0  0  0  0  0  0  0  0
    1.0042    1.8801    0.0026 H   0  0  0  0  0  0  0  0  0  0  0  0
   -0.5455    1.8639   -0.8728 H   0  0  0  0  0  0  0  0  0  0  0  0
   -0.5286    1.8543    0.9071 H   0  0  0  0  0  0  0  0  0  0  0  0
    0.0631   -3.8485    2.0307 H   0  0  0  0  0  0  0  0  0  0  0  0
    1.6294   -4.3623    5.8833 H   0  0  0  0  0  0  0  0  0  0  0  0
    2.1611   -2.7436    5.1773 H   0  0  0  0  0  0  0  0  0  0  0  0
    1.8858   -0.9928    5.0458 H   0  0  0  0  0  0  0  0  0  0  0  0
    1.8579    1.4635    5.2161 H   0  0  0  0  0  0  0  0  0  0  0  0
    0.0093    2.5958    6.3837 H   0  0  0  0  0  0  0  0  0  0  0  0
   -1.8120    1.2719    7.3804 H   0  0  0  0  0  0  0  0  0  0  0  0
   -1.7884   -1.1840    7.2029 H   0  0  0  0  0  0  0  0  0  0  0  0
    0.5309   -2.7989   -4.6733 H   0  0  0  0  0  0  0  0  0  0  0  0
    0.5414   -2.8816   -2.8953 H   0  0  0  0  0  0  0  0  0  0  0  0
   -2.0842   -2.7261   -2.9965 H   0  0  0  0  0  0  0  0  0  0  0  0
   -2.8042   -4.1734   -4.7569 H   0  0  0  0  0  0  0  0  0  0  0  0
   -1.1032   -4.0797   -5.5296 H   0  0  0  0  0  0  0  0  0  0  0  0
  1  2  1  0  0  0  0
  1 30  1  0  0  0  0
  1 31  1  0  0  0  0
  1 32  1  0  0  0  0
  2  6  1  0  0  0  0
  2  3  2  0  0  0  0
  3  4  1  0  0  0  0
  3 21  1  0  0  0  0
  4  5  1  0  0  0  0
  5  6  2  0  0  0  0
  5  7  1  0  0  0  0
  7  8  1  0  0  0  0
  7 33  1  0  0  0  0
  8  9  2  0  0  0  0
  8 10  1  0  0  0  0
 10 11  1  6  0  0  0
 10 13  1  0  0  0  0
 10 12  1  0  0  0  0
 12 13  1  0  0  0  0
 12 34  1  0  0  0  0
 12 35  1  0  0  0  0
 13 14  1  1  0  0  0
 13 15  1  0  0  0  0
 15 20  2  0  0  0  0
 15 16  1  0  0  0  0
 16 17  2  0  0  0  0
 16 36  1  0  0  0  0
 17 18  1  0  0  0  0
 17 37  1  0  0  0  0
 18 19  2  0  0  0  0
 18 38  1  0  0  0  0
 19 20  1  0  0  0  0
 19 39  1  0  0  0  0
 20 40  1  0  0  0  0
 21 26  1  0  0  0  0
 21 22  2  0  0  0  0
 22 23  1  0  0  0  0
 23 24  2  0  0  0  0
 24 25  1  0  0  0  0
 24 26  1  0  0  0  0
 26 27  1  0  0  0  0
 27 28  1  0  0  0  0
 27 41  1  0  0  0  0
 27 42  1  0  0  0  0
 28 29  2  0  0  0  0
 28 43  1  0  0  0  0
 29 44  1  0  0  0  0
 29 45  1  0  0  0  0
M  END
$$$$
ZINC36048666
 OpenBabel01252620473D

 53 55  0  0  1  0  0  0  0  0999 V2000
   -0.5146    1.7404    0.5772 C   0  0  0  0  0  0  0  0  0  0  0  0
   -0.3568    0.2470    0.7043 C   0  0  0  0  0  0  0  0  0  0  0  0
   -1.4652   -0.5469    0.7385 C   0  0  0  0  0  0  0  0  0  0  0  0
   -1.2614   -2.0407    0.8669 C   0  0  2  0  0  0  0  0  0  0  0  0
   -1.7827   -2.3755    1.7638 H   0  0  0  0  0  0  0  0  0  0  0  0
    0.1419   -2.5222    0.9457 N   0  0  0  0  0  0  0  0  0  0  0  0
    0.5816   -3.8121    1.0635 C   0  0  0  0  0  0  0  0  0  0  0  0
    2.0312   -4.0186    1.1207 C   0  0  0  0  0  0  0  0  0  0  0  0
    2.6426   -2.4579    1.0098 S   0  0  0  0  0  0  0  0  0  0  0  0
    1.1145   -1.5556    0.8936 C   0  0  0  0  0  0  0  0  0  0  0  0
    0.8615   -0.2810    0.7763 N   0  0  0  0  0  0  0  0  0  0  0  0
   -0.2996   -4.8703    1.1262 C   0  0  0  0  0  0  0  0  0  0  0  0
    0.1807   -6.1774    1.3842 C   0  0  0  0  0  0  0  0  0  0  0  0
    1.4937   -6.4034    1.4567 O   0  0  0  0  0  1  0  0  0  0  0  0
   -0.6797   -7.1827    1.5548 O   0  0  0  0  0  1  0  0  0  0  0  0
   -1.9135   -2.7027   -0.3195 C   0  0  0  0  0  0  0  0  0  0  0  0
   -3.0693   -3.4426   -0.1496 C   0  0  0  0  0  0  0  0  0  0  0  0
   -3.6699   -4.0511   -1.2356 C   0  0  0  0  0  0  0  0  0  0  0  0
   -3.1173   -3.9231   -2.4968 C   0  0  0  0  0  0  0  0  0  0  0  0
   -1.9596   -3.1833   -2.6738 C   0  0  0  0  0  0  0  0  0  0  0  0
   -1.3582   -2.5654   -1.5811 C   0  0  0  0  0  0  0  0  0  0  0  0
   -0.2246   -1.8335   -1.7507 O   0  0  0  0  0  0  0  0  0  0  0  0
    1.0070   -2.5538   -1.8295 C   0  0  0  0  0  0  0  0  0  0  0  0
   -1.4148   -3.0565   -3.9134 O   0  0  0  0  0  0  0  0  0  0  0  0
   -2.0893   -3.7129   -4.9887 C   0  0  0  0  0  0  0  0  0  0  0  0
   -2.7622    0.0077    0.6572 C   0  0  0  0  0  0  0  0  0  0  0  0
   -2.9079    1.2159    0.6491 O   0  0  0  0  0  0  0  0  0  0  0  0
   -3.8396   -0.8026    0.5884 O   0  0  0  0  0  0  0  0  0  0  0  0
   -5.1102   -0.1776    0.3958 C   0  0  0  0  0  0  0  0  0  0  0  0
   -6.2143   -1.2345    0.4652 C   0  0  0  0  0  0  0  0  0  0  0  0
   -6.2582   -1.7918    1.7803 O   0  0  0  0  0  0  0  0  0  0  0  0
   -7.2611   -2.7950    1.9532 C   0  0  0  0  0  0  0  0  0  0  0  0
    0.4692    2.2096    0.5613 H   0  0  0  0  0  0  0  0  0  0  0  0
   -1.0428    1.9725   -0.3475 H   0  0  0  0  0  0  0  0  0  0  0  0
   -1.0841    2.1191    1.4259 H   0  0  0  0  0  0  0  0  0  0  0  0
    2.5741   -4.9477    1.2121 H   0  0  0  0  0  0  0  0  0  0  0  0
   -1.3562   -4.7027    0.9785 H   0  0  0  0  0  0  0  0  0  0  0  0
   -3.5035   -3.5455    0.8339 H   0  0  0  0  0  0  0  0  0  0  0  0
   -4.5725   -4.6281   -1.0989 H   0  0  0  0  0  0  0  0  0  0  0  0
   -3.5881   -4.4001   -3.3436 H   0  0  0  0  0  0  0  0  0  0  0  0
    1.0995   -3.2110   -0.9648 H   0  0  0  0  0  0  0  0  0  0  0  0
    1.0217   -3.1498   -2.7420 H   0  0  0  0  0  0  0  0  0  0  0  0
    1.8394   -1.8501   -1.8416 H   0  0  0  0  0  0  0  0  0  0  0  0
   -2.1270   -4.7846   -4.7937 H   0  0  0  0  0  0  0  0  0  0  0  0
   -3.1037   -3.3230   -5.0733 H   0  0  0  0  0  0  0  0  0  0  0  0
   -1.5517   -3.5316   -5.9194 H   0  0  0  0  0  0  0  0  0  0  0  0
   -5.2706    0.5671    1.1754 H   0  0  0  0  0  0  0  0  0  0  0  0
   -5.1323    0.3074   -0.5801 H   0  0  0  0  0  0  0  0  0  0  0  0
   -7.1742   -0.7729    0.2339 H   0  0  0  0  0  0  0  0  0  0  0  0
   -6.0073   -2.0241   -0.2573 H   0  0  0  0  0  0  0  0  0  0  0  0
   -8.2428   -2.3657    1.7528 H   0  0  0  0  0  0  0  0  0  0  0  0
   -7.0759   -3.6169    1.2617 H   0  0  0  0  0  0  0  0  0  0  0  0
   -7.2296   -3.1675    2.9771 H   0  0  0  0  0  0  0  0  0  0  0  0
  1  2  1  0  0  0  0
  1 33  1  0  0  0  0
  1 34  1  0  0  0  0
  1 35  1  0  0  0  0
  2 11  1  0  0  0  0
  2  3  2  0  0  0  0
  3  4  1  0  0  0  0
  3 26  1  0  0  0  0
  4  5  1  1  0  0  0
  4  6  1  0  0  0  0
  4 16  1  0  0  0  0
  6 10  1  0  0  0  0
  6  7  1  0  0  0  0
  7  8  2  0  0  0  0
  7 12  1  0  0  0  0
  8  9  1  0  0  0  0
  8 36  1  0  0  0  0
  9 10  1  0  0  0  0
 10 11  2  0  0  0  0
 12 13  2  0  0  0  0
 12 37  1  0  0  0  0
 13 14  1  0  0  0  0
 13 15  1  0  0  0  0
 16 21  2  0  0  0  0
 16 17  1  0  0  0  0
 17 18  2  0  0  0  0
 17 38  1  0  0  0  0
 18 19  1  0  0  0  0
 18 39  1  0  0  0  0
 19 20  2  0  0  0  0
 19 40  1  0  0  0  0
 20 21  1  0  0  0  0
 20 24  1  0  0  0  0
 21 22  1  0  0  0  0
 22 23  1  0  0  0  0
 23 41  1  0  0  0  0
 23 42  1  0  0  0  0
 23 43  1  0  0  0  0
 24 25  1  0  0  0  0
 25 44  1  0  0  0  0
 25 45  1  0  0  0  0
 25 46  1  0  0  0  0
 26 27  2  0  0  0  0
 26 28  1  0  0  0  0
 28 29  1  0  0  0  0
 29 30  1  0  0  0  0
 29 47  1  0  0  0  0
 29 48  1  0  0  0  0
 30 31  1  0  0  0  0
 30 49  1  0  0  0  0
 30 50  1  0  0  0  0
 31 32  1  0  0  0  0
 32 51  1  0  0  0  0
 32 52  1  0  0  0  0
 32 53  1  0  0  0  0
M  END
$$$$
ZINC62224844
 OpenBabel01252620473D

 52 52  0  0  0  0  0  0  0  0999 V2000
    0.0602    1.3504    1.7794 C   0  0  0  0  0  0  0  0  0  0  0  0
    0.0719   -0.1403    1.5584 C   0  0  0  0  0  0  0  0  0  0  0  0
    1.1254   -0.7239    1.4154 O   0  0  0  0  0  0  0  0  0  0  0  0
   -1.0884   -0.8248    1.5196 N   0  0  0  0  0  0  0  0  0  0  0  0
   -1.0771   -2.2739    1.3047 C   0  0  0  0  0  0  0  0  0  0  0  0
   -2.5136   -2.8007    1.3041 C   0  0  0  0  0  0  0  0  0  0  0  0
   -2.5017   -4.3141    1.0797 C   0  0  0  0  0  0  0  0  0  0  0  0
   -3.9382   -4.8408    1.0791 C   0  0  0  0  0  0  0  0  0  0  0  0
   -3.9269   -6.2899    0.8642 N   0  0  0  0  0  0  0  0  0  0  0  0
   -5.0872   -6.9745    0.8254 C   0  0  0  0  0  0  0  0  0  0  0  0
   -6.1407   -6.3909    0.9684 O   0  0  0  0  0  0  0  0  0  0  0  0
   -5.0755   -8.4652    0.6043 C   0  0  0  0  0  0  0  0  0  0  0  0
   -6.5120   -8.9919    0.6037 C   0  0  0  0  0  0  0  0  0  0  0  0
   -6.4980  -10.7862    0.3377 S   0  0  0  0  0  0  0  0  0  0  0  0
   -6.0552  -11.0822   -0.9798 O   0  0  0  0  0  0  0  0  0  0  0  0
   -5.9240  -11.4429    1.4595 O   0  0  0  0  0  0  0  0  0  0  0  0
   -8.0928  -11.2319    0.3576 N   0  0  0  0  0  2  0  0  0  0  0  0
   -8.4459  -12.5713    0.1785 C   0  0  0  0  0  0  0  0  0  0  0  0
   -7.4591  -13.5316   -0.0108 C   0  0  0  0  0  0  0  0  0  0  0  0
   -7.8077  -14.8564   -0.1880 C   0  0  0  0  0  0  0  0  0  0  0  0
   -9.1377  -15.2313   -0.1781 C   0  0  0  0  0  0  0  0  0  0  0  0
  -10.1288  -14.2765    0.0106 C   0  0  0  0  0  0  0  0  0  0  0  0
   -9.7819  -12.9456    0.1950 C   0  0  0  0  0  0  0  0  0  0  0  0
  -11.4752  -14.6571    0.0204 N   0  0  0  0  0  0  0  0  0  0  0  0
  -11.8315  -15.8612    0.5099 C   0  0  0  0  0  0  0  0  0  0  0  0
  -10.9996  -16.5752    1.0289 O   0  0  0  0  0  0  0  0  0  0  0  0
  -13.2635  -16.3205    0.4125 C   0  0  0  0  0  0  0  0  0  0  0  0
    1.0836    1.7257    1.7799 H   0  0  0  0  0  0  0  0  0  0  0  0
   -0.5030    1.8319    0.9800 H   0  0  0  0  0  0  0  0  0  0  0  0
   -0.4084    1.5719    2.7383 H   0  0  0  0  0  0  0  0  0  0  0  0
   -1.9310   -0.3581    1.6339 H   0  0  0  0  0  0  0  0  0  0  0  0
   -0.6085   -2.4954    0.3458 H   0  0  0  0  0  0  0  0  0  0  0  0
   -0.5139   -2.7554    2.1041 H   0  0  0  0  0  0  0  0  0  0  0  0
   -2.9822   -2.5792    2.2630 H   0  0  0  0  0  0  0  0  0  0  0  0
   -3.0768   -2.3192    0.5047 H   0  0  0  0  0  0  0  0  0  0  0  0
   -2.0331   -4.5355    0.1208 H   0  0  0  0  0  0  0  0  0  0  0  0
   -1.9385   -4.7955    1.8791 H   0  0  0  0  0  0  0  0  0  0  0  0
   -4.4068   -4.6194    2.0380 H   0  0  0  0  0  0  0  0  0  0  0  0
   -4.5014   -4.3593    0.2796 H   0  0  0  0  0  0  0  0  0  0  0  0
   -3.0843   -6.7567    0.7498 H   0  0  0  0  0  0  0  0  0  0  0  0
   -4.6069   -8.6866   -0.3546 H   0  0  0  0  0  0  0  0  0  0  0  0
   -4.5123   -8.9466    1.4038 H   0  0  0  0  0  0  0  0  0  0  0  0
   -6.9806   -8.7704    1.5626 H   0  0  0  0  0  0  0  0  0  0  0  0
   -7.0752   -8.5104   -0.1957 H   0  0  0  0  0  0  0  0  0  0  0  0
   -6.4188  -13.2417   -0.0197 H   0  0  0  0  0  0  0  0  0  0  0  0
   -7.0391  -15.6008   -0.3349 H   0  0  0  0  0  0  0  0  0  0  0  0
   -9.4070  -16.2678   -0.3177 H   0  0  0  0  0  0  0  0  0  0  0  0
  -10.5504  -12.2021    0.3464 H   0  0  0  0  0  0  0  0  0  0  0  0
  -12.1521  -14.0544   -0.3251 H   0  0  0  0  0  0  0  0  0  0  0  0
  -13.5607  -16.3638   -0.6353 H   0  0  0  0  0  0  0  0  0  0  0  0
  -13.3587  -17.3105    0.8584 H   0  0  0  0  0  0  0  0  0  0  0  0
  -13.9069  -15.6192    0.9439 H   0  0  0  0  0  0  0  0  0  0  0  0
  1  2  1  0  0  0  0
  1 28  1  0  0  0  0
  1 29  1  0  0  0  0
  1 30  1  0  0  0  0
  2  3  2  0  0  0  0
  2  4  1  0  0  0  0
  4  5  1  0  0  0  0
  4 31  1  0  0  0  0
  5  6  1  0  0  0  0
  5 32  1  0  0  0  0
  5 33  1  0  0  0  0
  6  7  1  0  0  0  0
  6 34  1  0  0  0  0
  6 35  1  0  0  0  0
  7  8  1  0  0  0  0
  7 36  1  0  0  0  0
  7 37  1  0  0  0  0
  8  9  1  0  0  0  0
  8 38  1  0  0  0  0
  8 39  1  0  0  0  0
  9 10  1  0  0  0  0
  9 40  1  0  0  0  0
 10 11  2  0  0  0  0
 10 12  1  0  0  0  0
 12 13  1  0  0  0  0
 12 41  1  0  0  0  0
 12 42  1  0  0  0  0
 13 14  1  0  0  0  0
 13 43  1  0  0  0  0
 13 44  1  0  0  0  0
 14 15  2  0  0  0  0
 14 16  2  0  0  0  0
 14 17  1  0  0  0  0
 17 18  1  0  0  0  0
 18 23  2  0  0  0  0
 18 19  1  0  0  0  0
 19 20  2  0  0  0  0
 19 45  1  0  0  0  0
 20 21  1  0  0  0  0
 20 46  1  0  0  0  0
 21 22  2  0  0  0  0
 21 47  1  0  0  0  0
 22 23  1  0  0  0  0
 22 24  1  0  0  0  0
 23 48  1  0  0  0  0
 24 25  1  0  0  0  0
 24 49  1  0  0  0  0
 25 26  2  0  0  0  0
 25 27  1  0  0  0  0
 27 50  1  0  0  0  0
 27 51  1  0  0  0  0
 27 52  1  0  0  0  0
M  END
$$$$
ZINC13461757
 OpenBabel01252620473D

 48 50  0  0  1  0  0  0  0  0999 V2000
   -1.7122    2.4285    0.3533 C   0  0  0  0  0  0  0  0  0  0  0  0
   -0.5659    1.6523    0.3009 C   0  0  0  0  0  0  0  0  0  0  0  0
    0.6786    2.2471    0.2395 C   0  0  0  0  0  0  0  0  0  0  0  0
    0.7888    3.6308    0.2356 C   0  0  0  0  0  0  0  0  0  0  0  0
   -0.3698    4.4200    0.2944 C   0  0  0  0  0  0  0  0  0  0  0  0
   -1.6219    3.8040    0.3562 C   0  0  0  0  0  0  0  0  0  0  0  0
   -0.2661    5.8910    0.2915 C   0  0  0  0  0  0  0  0  0  0  0  0
    0.8249    6.4231    0.2380 O   0  0  0  0  0  0  0  0  0  0  0  0
    2.0448    4.2335    0.1741 N   0  0  0  0  0  0  0  0  0  0  0  0
    2.8888    3.9180   -0.8279 C   0  0  0  0  0  0  0  0  0  0  0  0
    2.5563    3.1078   -1.6792 O   0  0  0  0  0  0  0  0  0  0  0  0
    4.1510    4.5260   -0.8875 C   0  0  0  0  0  0  0  0  0  0  0  0
    4.5022    5.4405    0.0892 C   0  0  0  0  0  0  0  0  0  0  0  0
    3.5852    5.7397    1.1198 C   0  0  0  0  0  0  0  0  0  0  0  0
    2.4156    5.1646    1.1497 N   0  0  0  0  0  0  0  0  0  0  0  0
    5.7421    6.0565    0.0564 N   0  0  0  0  0  0  0  0  0  0  0  0
    6.1070    7.0240    1.0941 C   0  0  1  0  0  0  0  0  0  0  0  0
    5.2232    7.5882    1.3918 H   0  0  0  0  0  0  0  0  0  0  0  0
    6.6710    6.2820    2.3075 C   0  0  0  0  0  0  0  0  0  0  0  0
    7.8843    5.6221    1.9408 O   0  0  0  0  0  0  0  0  0  0  0  0
    7.1648    7.9843    0.5467 C   0  0  1  0  0  0  0  0  0  0  0  0
    8.0274    7.4154    0.1999 H   0  0  0  0  0  0  0  0  0  0  0  0
    6.5851    8.7683   -0.6023 C   0  0  0  0  0  0  0  0  0  0  0  0
    5.8537    9.9154   -0.3572 C   0  0  0  0  0  0  0  0  0  0  0  0
    5.3259   10.6371   -1.4115 C   0  0  0  0  0  0  0  0  0  0  0  0
    5.5211   10.2062   -2.7104 C   0  0  0  0  0  0  0  0  0  0  0  0
    6.2477    9.0560   -2.9552 C   0  0  0  0  0  0  0  0  0  0  0  0
    6.7799    8.3371   -1.9012 C   0  0  0  0  0  0  0  0  0  0  0  0
    4.9517   10.9762   -3.8390 N   0  0  0  0  0  4  0  0  0  0  0  0
    5.1233   10.5964   -4.9834 O   0  0  0  0  0  0  0  0  0  0  0  0
    4.3115   11.9897   -3.6233 O   0  5  0  0  0  0  0  0  0  0  0  0
    7.5717    8.8839    1.5798 O   0  0  0  0  0  0  0  0  0  0  0  0
    5.2564    4.1372   -2.1684 Cl  0  0  0  0  0  0  0  0  0  0  0  0
   -2.6813    1.9536    0.3963 H   0  0  0  0  0  0  0  0  0  0  0  0
   -0.6465    0.5753    0.3036 H   0  0  0  0  0  0  0  0  0  0  0  0
    1.5673    1.6351    0.1940 H   0  0  0  0  0  0  0  0  0  0  0  0
   -2.5183    4.4046    0.4016 H   0  0  0  0  0  0  0  0  0  0  0  0
    3.8525    6.4527    1.8857 H   0  0  0  0  0  0  0  0  0  0  0  0
    6.3689    5.8473   -0.6537 H   0  0  0  0  0  0  0  0  0  0  0  0
    6.8722    6.9942    3.1077 H   0  0  0  0  0  0  0  0  0  0  0  0
    5.9459    5.5444    2.6516 H   0  0  0  0  0  0  0  0  0  0  0  0
    8.2984    5.1303    2.6631 H   0  0  0  0  0  0  0  0  0  0  0  0
    5.6978   10.2498    0.6578 H   0  0  0  0  0  0  0  0  0  0  0  0
    4.7580   11.5356   -1.2202 H   0  0  0  0  0  0  0  0  0  0  0  0
    6.3999    8.7192   -3.9700 H   0  0  0  0  0  0  0  0  0  0  0  0
    7.3475    7.4385   -2.0925 H   0  0  0  0  0  0  0  0  0  0  0  0
    6.8405    9.3577    1.9993 H   0  0  0  0  0  0  0  0  0  0  0  0
   -1.3814    6.6451    0.3480 O   0  0  0  0  0  1  0  0  0  0  0  0
  1  6  2  0  0  0  0
  1  2  1  0  0  0  0
  1 34  1  0  0  0  0
  2  3  2  0  0  0  0
  2 35  1  0  0  0  0
  3  4  1  0  0  0  0
  3 36  1  0  0  0  0
  4  5  2  0  0  0  0
  4  9  1  0  0  0  0
  5  6  1  0  0  0  0
  5  7  1  0  0  0  0
  6 37  1  0  0  0  0
  7  8  2  0  0  0  0
  7 48  1  0  0  0  0
  9 15  1  0  0  0  0
  9 10  1  0  0  0  0
 10 11  2  0  0  0  0
 10 12  1  0  0  0  0
 12 13  2  0  0  0  0
 12 33  1  0  0  0  0
 13 14  1  0  0  0  0
 13 16  1  0  0  0  0
 14 15  2  0  0  0  0
 14 38  1  0  0  0  0
 16 17  1  0  0  0  0
 16 39  1  0  0  0  0
 17 18  1  1  0  0  0
 17 19  1  0  0  0  0
 17 21  1  0  0  0  0
 19 20  1  0  0  0  0
 19 40  1  0  0  0  0
 19 41  1  0  0  0  0
 20 42  1  0  0  0  0
 21 22  1  6  0  0  0
 21 23  1  0  0  0  0
 21 32  1  0  0  0  0
 23 28  2  0  0  0  0
 23 24  1  0  0  0  0
 24 25  2  0  0  0  0
 24 43  1  0  0  0  0
 25 26  1  0  0  0  0
 25 44  1  0  0  0  0
 26 27  2  0  0  0  0
 26 29  1  0  0  0  0
 27 28  1  0  0  0  0
 27 45  1  0  0  0  0
 28 46  1  0  0  0  0
 29 30  2  0  0  0  0
 29 31  1  0  0  0  0
 32 47  1  0  0  0  0
M  CHG  1  31  -1
M  END
$$$$
ZINC13364481
 OpenBabel01252620473D

 54 56  0  0  0  0  0  0  0  0999 V2000
    1.1129    1.7462    0.0008 C   0  0  0  0  0  0  0  0  0  0  0  0
   -0.0126    1.0758    0.0080 C   0  0  0  0  0  0  0  0  0  0  0  0
   -1.3278    1.8115    0.0182 C   0  0  0  0  0  0  0  0  0  0  0  0
   -2.1461    1.3646   -1.1118 N   0  0  0  0  0  0  0  0  0  0  0  0
   -2.9875    0.3164   -0.9579 C   0  0  0  0  0  0  0  0  0  0  0  0
   -3.0799   -0.2672    0.1061 O   0  0  0  0  0  0  0  0  0  0  0  0
   -3.7873   -0.0921   -2.1237 C   0  0  0  0  0  0  0  0  0  0  0  0
   -4.6807   -1.1610   -2.0604 C   0  0  0  0  0  0  0  0  0  0  0  0
   -5.4040   -1.5094   -3.1647 C   0  0  0  0  0  0  0  0  0  0  0  0
   -5.2585   -0.8016   -4.3650 C   0  0  0  0  0  0  0  0  0  0  0  0
   -4.3744    0.2664   -4.4506 C   0  0  0  0  0  0  0  0  0  0  0  0
   -3.6282    0.6321   -3.3266 C   0  0  0  0  0  0  0  0  0  0  0  0
   -2.7545    1.6656   -3.3640 N   0  0  0  0  0  0  0  0  0  0  0  0
   -2.0575    2.0130   -2.3103 C   0  0  0  0  0  0  0  0  0  0  0  0
   -0.9494    3.3760   -2.4482 S   0  0  0  0  0  0  0  0  0  0  0  0
   -1.2282    3.8341   -4.1769 C   0  0  0  0  0  0  0  0  0  0  0  0
   -0.3596    5.0139   -4.5303 C   0  0  0  0  0  0  0  0  0  0  0  0
    0.3755    5.4973   -3.6956 O   0  0  0  0  0  0  0  0  0  0  0  0
   -0.3998    5.5317   -5.7739 N   0  0  0  0  0  0  0  0  0  0  0  0
    0.4446    6.6786   -6.1175 C   0  0  0  0  0  0  0  0  0  0  0  0
    0.2089    7.0659   -7.5788 C   0  0  0  0  0  0  0  0  0  0  0  0
    1.0774    8.2456   -7.9321 C   0  0  0  0  0  0  0  0  0  0  0  0
    2.2222    8.0113   -8.4891 C   0  0  0  0  0  0  0  0  0  0  0  0
    3.1975    9.0797   -8.8882 C   0  0  0  0  0  0  0  0  0  0  0  0
    2.4966   10.4389   -8.9440 C   0  0  0  0  0  0  0  0  0  0  0  0
    1.7079   10.6319   -7.6426 C   0  0  0  0  0  0  0  0  0  0  0  0
    0.5588    9.6192   -7.6220 C   0  0  0  0  0  0  0  0  0  0  0  0
   -6.0520   -1.1949   -5.5502 C   0  0  0  0  0  0  0  0  0  0  0  0
   -5.9291   -0.5847   -6.5930 O   0  0  0  0  0  0  0  0  0  0  0  0
    2.0554    1.2190   -0.0110 H   0  0  0  0  0  0  0  0  0  0  0  0
    1.0982    2.8261    0.0067 H   0  0  0  0  0  0  0  0  0  0  0  0
    0.0021   -0.0041    0.0020 H   0  0  0  0  0  0  0  0  0  0  0  0
   -1.8525    1.6048    0.9510 H   0  0  0  0  0  0  0  0  0  0  0  0
   -1.1455    2.8828   -0.0664 H   0  0  0  0  0  0  0  0  0  0  0  0
   -4.8001   -1.7124   -1.1395 H   0  0  0  0  0  0  0  0  0  0  0  0
   -6.0950   -2.3377   -3.1123 H   0  0  0  0  0  0  0  0  0  0  0  0
   -4.2643    0.8093   -5.3776 H   0  0  0  0  0  0  0  0  0  0  0  0
   -0.9765    2.9917   -4.8212 H   0  0  0  0  0  0  0  0  0  0  0  0
   -2.2760    4.0992   -4.3181 H   0  0  0  0  0  0  0  0  0  0  0  0
   -0.9878    5.1451   -6.4416 H   0  0  0  0  0  0  0  0  0  0  0  0
    0.1929    7.5210   -5.4732 H   0  0  0  0  0  0  0  0  0  0  0  0
    1.4924    6.4136   -5.9763 H   0  0  0  0  0  0  0  0  0  0  0  0
    0.4606    6.2235   -8.2230 H   0  0  0  0  0  0  0  0  0  0  0  0
   -0.8389    7.3309   -7.7199 H   0  0  0  0  0  0  0  0  0  0  0  0
    2.4921    6.9829   -8.6786 H   0  0  0  0  0  0  0  0  0  0  0  0
    4.0071    9.1204   -8.1595 H   0  0  0  0  0  0  0  0  0  0  0  0
    3.6072    8.8461   -9.8708 H   0  0  0  0  0  0  0  0  0  0  0  0
    3.2395   11.2304   -9.0430 H   0  0  0  0  0  0  0  0  0  0  0  0
    1.8140   10.4645   -9.7933 H   0  0  0  0  0  0  0  0  0  0  0  0
    2.3639   10.4644   -6.7883 H   0  0  0  0  0  0  0  0  0  0  0  0
    1.3072   11.6448   -7.6037 H   0  0  0  0  0  0  0  0  0  0  0  0
   -0.1878    9.8998   -8.3650 H   0  0  0  0  0  0  0  0  0  0  0  0
    0.0990    9.6172   -6.6337 H   0  0  0  0  0  0  0  0  0  0  0  0
   -6.9107   -2.2297   -5.4727 O   0  0  0  0  0  1  0  0  0  0  0  0
  1  2  2  0  0  0  0
  1 30  1  0  0  0  0
  1 31  1  0  0  0  0
  2  3  1  0  0  0  0
  2 32  1  0  0  0  0
  3  4  1  0  0  0  0
  3 33  1  0  0  0  0
  3 34  1  0  0  0  0
  4 14  1  0  0  0  0
  4  5  1  0  0  0  0
  5  6  2  0  0  0  0
  5  7  1  0  0  0  0
  7 12  2  0  0  0  0
  7  8  1  0  0  0  0
  8  9  2  0  0  0  0
  8 35  1  0  0  0  0
  9 10  1  0  0  0  0
  9 36  1  0  0  0  0
 10 11  2  0  0  0  0
 10 28  1  0  0  0  0
 11 12  1  0  0  0  0
 11 37  1  0  0  0  0
 12 13  1  0  0  0  0
 13 14  2  0  0  0  0
 14 15  1  0  0  0  0
 15 16  1  0  0  0  0
 16 17  1  0  0  0  0
 16 38  1  0  0  0  0
 16 39  1  0  0  0  0
 17 18  2  0  0  0  0
 17 19  1  0  0  0  0
 19 20  1  0  0  0  0
 19 40  1  0  0  0  0
 20 21  1  0  0  0  0
 20 41  1  0  0  0  0
 20 42  1  0  0  0  0
 21 22  1  0  0  0  0
 21 43  1  0  0  0  0
 21 44  1  0  0  0  0
 22 27  1  0  0  0  0
 22 23  2  0  0  0  0
 23 24  1  0  0  0  0
 23 45  1  0  0  0  0
 24 25  1  0  0  0  0
 24 46  1  0  0  0  0
 24 47  1  0  0  0  0
 25 26  1  0  0  0  0
 25 48  1  0  0  0  0
 25 49  1  0  0  0  0
 26 27  1  0  0  0  0
 26 50  1  0  0  0  0
 26 51  1  0  0  0  0
 27 52  1  0  0  0  0
 27 53  1  0  0  0  0
 28 29  2  0  0  0  0
 28 54  1  0  0  0  0
M  END
$$$$
ZINC13178739
 OpenBabel01252620473D

 52 55  0  0  0  0  0  0  0  0999 V2000
   -6.9853    7.9692   -1.7178 C   0  0  0  0  0  0  0  0  0  0  0  0
   -6.3335    7.6121   -3.0551 C   0  0  0  0  0  0  0  0  0  0  0  0
   -4.9328    8.0415   -3.0457 N   0  0  0  0  0  0  0  0  0  0  0  0
   -4.6242    9.2352   -3.5693 C   0  0  0  0  0  0  0  0  0  0  0  0
   -3.3298    9.7123   -3.5985 C   0  0  0  0  0  0  0  0  0  0  0  0
   -2.2518    8.8820   -3.0361 C   0  0  0  0  0  0  0  0  0  0  0  0
   -1.0927    9.2592   -3.0388 O   0  0  0  0  0  0  0  0  0  0  0  0
   -2.6322    7.5768   -2.4708 C   0  0  0  0  0  0  0  0  0  0  0  0
   -3.9875    7.1995   -2.4986 C   0  0  0  0  0  0  0  0  0  0  0  0
   -4.3604    5.9702   -1.9685 C   0  0  0  0  0  0  0  0  0  0  0  0
   -3.3980    5.1325   -1.4279 C   0  0  0  0  0  0  0  0  0  0  0  0
   -2.0555    5.5188   -1.3997 C   0  0  0  0  0  0  0  0  0  0  0  0
   -1.6741    6.7244   -1.9168 C   0  0  0  0  0  0  0  0  0  0  0  0
   -1.1296    4.6938   -0.8637 F   0  0  0  0  0  0  0  0  0  0  0  0
   -3.7728    3.8983   -0.9026 N   0  0  0  0  0  0  0  0  0  0  0  0
   -4.3073    3.0200   -1.9518 C   0  0  0  0  0  0  0  0  0  0  0  0
   -4.5372    1.6198   -1.3732 C   0  0  0  0  0  0  0  0  0  0  0  0
   -5.3813    1.7423   -0.1750 N   0  0  0  0  0  0  0  0  0  0  0  0
   -4.9823    2.7062    0.8618 C   0  0  0  0  0  0  0  0  0  0  0  0
   -4.7349    4.0636    0.1952 C   0  0  0  0  0  0  0  0  0  0  0  0
   -6.4908    0.9908   -0.0307 C   0  0  0  0  0  0  0  0  0  0  0  0
   -6.8617    0.2735   -0.9396 O   0  0  0  0  0  0  0  0  0  0  0  0
   -7.2556    1.0388    1.2306 C   0  0  0  0  0  0  0  0  0  0  0  0
   -6.5913    0.9541    2.4573 C   0  0  0  0  0  0  0  0  0  0  0  0
   -7.3104    0.9993    3.6336 C   0  0  0  0  0  0  0  0  0  0  0  0
   -8.6929    1.1292    3.6020 C   0  0  0  0  0  0  0  0  0  0  0  0
   -9.3588    1.2132    2.3892 C   0  0  0  0  0  0  0  0  0  0  0  0
   -8.6470    1.1748    1.2028 C   0  0  0  0  0  0  0  0  0  0  0  0
   -9.2954    1.2632    0.0209 F   0  0  0  0  0  0  0  0  0  0  0  0
  -10.7038    1.3385    2.3653 F   0  0  0  0  0  0  0  0  0  0  0  0
   -9.3913    1.1733    4.7576 F   0  0  0  0  0  0  0  0  0  0  0  0
   -6.6682    0.9175    4.8194 F   0  0  0  0  0  0  0  0  0  0  0  0
   -3.0321   11.0281   -4.1811 C   0  0  0  0  0  0  0  0  0  0  0  0
   -1.8882   11.4391   -4.2014 O   0  0  0  0  0  0  0  0  0  0  0  0
   -6.9369    9.0476   -1.5665 H   0  0  0  0  0  0  0  0  0  0  0  0
   -8.0274    7.6497   -1.7247 H   0  0  0  0  0  0  0  0  0  0  0  0
   -6.4561    7.4648   -0.9094 H   0  0  0  0  0  0  0  0  0  0  0  0
   -6.8627    8.1165   -3.8635 H   0  0  0  0  0  0  0  0  0  0  0  0
   -6.3819    6.5337   -3.2064 H   0  0  0  0  0  0  0  0  0  0  0  0
   -5.4147    9.8445   -3.9819 H   0  0  0  0  0  0  0  0  0  0  0  0
   -5.3967    5.6664   -1.9825 H   0  0  0  0  0  0  0  0  0  0  0  0
   -0.6348    7.0175   -1.8976 H   0  0  0  0  0  0  0  0  0  0  0  0
   -5.2523    3.4225   -2.3166 H   0  0  0  0  0  0  0  0  0  0  0  0
   -3.5948    2.9610   -2.7747 H   0  0  0  0  0  0  0  0  0  0  0  0
   -3.5801    1.1737   -1.1028 H   0  0  0  0  0  0  0  0  0  0  0  0
   -5.0393    0.9959   -2.1126 H   0  0  0  0  0  0  0  0  0  0  0  0
   -4.0680    2.3645    1.3470 H   0  0  0  0  0  0  0  0  0  0  0  0
   -5.7763    2.8013    1.6025 H   0  0  0  0  0  0  0  0  0  0  0  0
   -4.3325    4.7615    0.9294 H   0  0  0  0  0  0  0  0  0  0  0  0
   -5.6739    4.4515   -0.1995 H   0  0  0  0  0  0  0  0  0  0  0  0
   -5.5164    0.8531    2.4842 H   0  0  0  0  0  0  0  0  0  0  0  0
   -4.0275   11.7794   -4.6930 O   0  0  0  0  0  1  0  0  0  0  0  0
  1  2  1  0  0  0  0
  1 35  1  0  0  0  0
  1 36  1  0  0  0  0
  1 37  1  0  0  0  0
  2  3  1  0  0  0  0
  2 38  1  0  0  0  0
  2 39  1  0  0  0  0
  3  9  1  0  0  0  0
  3  4  1  0  0  0  0
  4  5  2  0  0  0  0
  4 40  1  0  0  0  0
  5  6  1  0  0  0  0
  5 33  1  0  0  0  0
  6  7  2  0  0  0  0
  6  8  1  0  0  0  0
  8 13  2  0  0  0  0
  8  9  1  0  0  0  0
  9 10  2  0  0  0  0
 10 11  1  0  0  0  0
 10 41  1  0  0  0  0
 11 12  2  0  0  0  0
 11 15  1  0  0  0  0
 12 13  1  0  0  0  0
 12 14  1  0  0  0  0
 13 42  1  0  0  0  0
 15 20  1  0  0  0  0
 15 16  1  0  0  0  0
 16 17  1  0  0  0  0
 16 43  1  0  0  0  0
 16 44  1  0  0  0  0
 17 18  1  0  0  0  0
 17 45  1  0  0  0  0
 17 46  1  0  0  0  0
 18 19  1  0  0  0  0
 18 21  1  0  0  0  0
 19 20  1  0  0  0  0
 19 47  1  0  0  0  0
 19 48  1  0  0  0  0
 20 49  1  0  0  0  0
 20 50  1  0  0  0  0
 21 22  2  0  0  0  0
 21 23  1  0  0  0  0
 23 28  2  0  0  0  0
 23 24  1  0  0  0  0
 24 25  2  0  0  0  0
 24 51  1  0  0  0  0
 25 26  1  0  0  0  0
 25 32  1  0  0  0  0
 26 27  2  0  0  0  0
 26 31  1  0  0  0  0
 27 28  1  0  0  0  0
 27 30  1  0  0  0  0
 28 29  1  0  0  0  0
 33 34  2  0  0  0  0
 33 52  1  0  0  0  0
M  END
$$$$
ZINC16929521
 OpenBabel01252620473D

 43 45  0  0  1  0  0  0  0  0999 V2000
   -0.0736  -14.0940   -2.9636 C   0  0  0  0  0  0  0  0  0  0  0  0
   -1.0518  -13.4926   -1.9526 C   0  0  1  0  0  0  0  0  0  0  0  0
   -1.7927  -12.8900   -2.4780 H   0  0  0  0  0  0  0  0  0  0  0  0
   -1.7455  -14.6014   -1.2040 C   0  0  0  0  0  0  0  0  0  0  0  0
   -1.6383  -14.6787   -0.0030 O   0  0  0  0  0  0  0  0  0  0  0  0
   -0.3364  -12.6694   -1.0292 O   0  0  0  0  0  0  0  0  0  0  0  0
   -0.0631  -11.3983   -1.4203 C   0  0  0  0  0  0  0  0  0  0  0  0
   -0.3635  -10.9925   -2.7155 C   0  0  0  0  0  0  0  0  0  0  0  0
   -0.0886   -9.7048   -3.1174 C   0  0  0  0  0  0  0  0  0  0  0  0
    0.4952   -8.8033   -2.2188 C   0  0  0  0  0  0  0  0  0  0  0  0
    0.8014   -9.2193   -0.9171 C   0  0  0  0  0  0  0  0  0  0  0  0
    0.5164  -10.5075   -0.5241 C   0  0  0  0  0  0  0  0  0  0  0  0
    0.7907   -7.4285   -2.6417 C   0  0  0  0  0  0  0  0  0  0  0  0
    0.9595   -6.4538   -1.7120 C   0  0  0  0  0  0  0  0  0  0  0  0
    1.4103   -5.0583   -1.8827 C   0  0  0  0  0  0  0  0  0  0  0  0
    1.7000   -4.6092   -2.9763 O   0  0  0  0  0  0  0  0  0  0  0  0
    1.4830   -4.3208   -0.7874 N   0  0  0  0  0  0  0  0  0  0  0  0
    1.1658   -4.8238    0.4230 C   0  0  0  0  0  0  0  0  0  0  0  0
    1.2023   -4.0382    1.9436 S   0  0  0  0  0  0  0  0  0  0  0  0
    0.6964   -6.5069    0.0553 S   0  0  0  0  0  0  0  0  0  0  0  0
    1.9050   -2.9864   -0.8862 C   0  0  0  0  0  0  0  0  0  0  0  0
    0.9950   -1.9541   -0.6832 C   0  0  0  0  0  0  0  0  0  0  0  0
    1.4019   -0.6387   -0.7721 C   0  0  0  0  0  0  0  0  0  0  0  0
    2.7208   -0.3363   -1.0773 C   0  0  0  0  0  0  0  0  0  0  0  0
    3.6436   -1.3711   -1.2836 C   0  0  0  0  0  0  0  0  0  0  0  0
    3.2251   -2.7006   -1.1857 C   0  0  0  0  0  0  0  0  0  0  0  0
    5.0485   -1.0582   -1.6018 C   0  0  0  0  0  0  0  0  0  0  0  0
    5.4092    0.0991   -1.6859 O   0  0  0  0  0  0  0  0  0  0  0  0
    3.1179    0.9579   -1.1703 O   0  0  0  0  0  0  0  0  0  0  0  0
    0.4282  -13.2921   -3.5050 H   0  0  0  0  0  0  0  0  0  0  0  0
    0.6673  -14.6966   -2.4381 H   0  0  0  0  0  0  0  0  0  0  0  0
   -0.6193  -14.7220   -3.6679 H   0  0  0  0  0  0  0  0  0  0  0  0
   -0.8137  -11.6887   -3.4076 H   0  0  0  0  0  0  0  0  0  0  0  0
   -0.3230   -9.3905   -4.1236 H   0  0  0  0  0  0  0  0  0  0  0  0
    1.2558   -8.5294   -0.2214 H   0  0  0  0  0  0  0  0  0  0  0  0
    0.7477  -10.8281    0.4810 H   0  0  0  0  0  0  0  0  0  0  0  0
    0.8738   -7.1928   -3.6924 H   0  0  0  0  0  0  0  0  0  0  0  0
   -0.0343   -2.1834   -0.4500 H   0  0  0  0  0  0  0  0  0  0  0  0
    0.6908    0.1575   -0.6084 H   0  0  0  0  0  0  0  0  0  0  0  0
    3.9305   -3.5032   -1.3430 H   0  0  0  0  0  0  0  0  0  0  0  0
    3.0380    1.3309   -2.0589 H   0  0  0  0  0  0  0  0  0  0  0  0
   -2.4826  -15.5031   -1.8714 O   0  0  0  0  0  1  0  0  0  0  0  0
    5.9327   -2.0556   -1.7996 O   0  0  0  0  0  1  0  0  0  0  0  0
  1  2  1  0  0  0  0
  1 30  1  0  0  0  0
  1 31  1  0  0  0  0
  1 32  1  0  0  0  0
  2  3  1  6  0  0  0
  2  4  1  0  0  0  0
  2  6  1  0  0  0  0
  4  5  2  0  0  0  0
  4 42  1  0  0  0  0
  6  7  1  0  0  0  0
  7 12  2  0  0  0  0
  7  8  1  0  0  0  0
  8  9  2  0  0  0  0
  8 33  1  0  0  0  0
  9 10  1  0  0  0  0
  9 34  1  0  0  0  0
 10 11  2  0  0  0  0
 10 13  1  0  0  0  0
 11 12  1  0  0  0  0
 11 35  1  0  0  0  0
 12 36  1  0  0  0  0
 13 14  2  0  0  0  0
 13 37  1  0  0  0  0
 14 20  1  0  0  0  0
 14 15  1  0  0  0  0
 15 16  2  0  0  0  0
 15 17  1  0  0  0  0
 17 18  1  0  0  0  0
 17 21  1  0  0  0  0
 18 19  2  0  0  0  0
 18 20  1  0  0  0  0
 21 26  2  0  0  0  0
 21 22  1  0  0  0  0
 22 23  2  0  0  0  0
 22 38  1  0  0  0  0
 23 24  1  0  0  0  0
 23 39  1  0  0  0  0
 24 25  2  0  0  0  0
 24 29  1  0  0  0  0
 25 26  1  0  0  0  0
 25 27  1  0  0  0  0
 26 40  1  0  0  0  0
 27 28  2  0  0  0  0
 27 43  1  0  0  0  0
 29 41  1  0  0  0  0
M  END
$$$$
ZINC40055147
 OpenBabel01252620473D

 62 65  0  0  1  0  0  0  0  0999 V2000
    0.0692    1.2292   -0.0854 C   0  0  0  0  0  0  0  0  0  0  0  0
    0.0420   -0.1992   -0.1171 O   0  0  0  0  0  0  0  0  0  0  0  0
   -1.1728   -0.7966    0.0124 C   0  0  0  0  0  0  0  0  0  0  0  0
   -2.3240   -0.0267    0.0564 C   0  0  0  0  0  0  0  0  0  0  0  0
   -3.5582   -0.6356    0.1876 C   0  0  0  0  0  0  0  0  0  0  0  0
   -3.6472   -2.0124    0.2756 C   0  0  0  0  0  0  0  0  0  0  0  0
   -2.5026   -2.7863    0.2328 C   0  0  0  0  0  0  0  0  0  0  0  0
   -1.2629   -2.1827    0.0952 C   0  0  0  0  0  0  0  0  0  0  0  0
   -0.1363   -2.9430    0.0470 O   0  0  0  0  0  0  0  0  0  0  0  0
   -4.8092    0.2033    0.2352 C   0  0  1  0  0  0  0  0  0  0  0  0
   -4.5525    1.2492    0.4040 H   0  0  0  0  0  0  0  0  0  0  0  0
   -5.5805    0.0596   -1.0559 C   0  0  0  0  0  0  0  0  0  0  0  0
   -6.7898   -0.4551   -0.7332 C   0  0  0  0  0  0  0  0  0  0  0  0
   -6.8553   -0.6611    0.7288 C   0  0  0  0  0  0  0  0  0  0  0  0
   -7.8119   -1.1116    1.3273 O   0  0  0  0  0  0  0  0  0  0  0  0
   -5.6981   -0.2762    1.3000 N   0  0  0  0  0  0  0  0  0  0  0  0
   -5.3817   -0.3272    2.7295 C   0  0  0  0  0  0  0  0  0  0  0  0
   -5.7953    0.9891    3.3907 C   0  0  0  0  0  0  0  0  0  0  0  0
   -5.4649    0.9359    4.8836 C   0  0  0  0  0  0  0  0  0  0  0  0
   -5.8512    2.1653    5.5011 O   0  0  0  0  0  0  0  0  0  0  0  0
   -7.7814   -0.7361   -1.6098 O   0  5  0  0  0  0  0  0  0  0  0  0
   -5.1097    0.4102   -2.3997 C   0  0  0  0  0  0  0  0  0  0  0  0
   -4.9263   -0.4631   -3.2273 O   0  0  0  0  0  0  0  0  0  0  0  0
   -4.8582    1.8222   -2.7485 C   0  0  0  0  0  0  0  0  0  0  0  0
   -4.9817    2.8177   -1.7745 C   0  0  0  0  0  0  0  0  0  0  0  0
   -4.7463    4.1334   -2.1040 C   0  0  0  0  0  0  0  0  0  0  0  0
   -4.3861    4.4730   -3.4034 C   0  0  0  0  0  0  0  0  0  0  0  0
   -4.2626    3.4861   -4.3752 C   0  0  0  0  0  0  0  0  0  0  0  0
   -4.4901    2.1674   -4.0526 C   0  0  0  0  0  0  0  0  0  0  0  0
   -4.1549    5.7711   -3.7241 O   0  0  0  0  0  0  0  0  0  0  0  0
   -3.7886    6.0498   -5.0770 C   0  0  0  0  0  0  0  0  0  0  0  0
   -3.5738    7.5320   -5.2440 C   0  0  0  0  0  0  0  0  0  0  0  0
   -4.6316    8.3477   -5.6000 C   0  0  0  0  0  0  0  0  0  0  0  0
   -4.4352    9.7072   -5.7533 C   0  0  0  0  0  0  0  0  0  0  0  0
   -3.1795   10.2516   -5.5506 C   0  0  0  0  0  0  0  0  0  0  0  0
   -2.1212    9.4348   -5.1944 C   0  0  0  0  0  0  0  0  0  0  0  0
   -2.3202    8.0762   -5.0358 C   0  0  0  0  0  0  0  0  0  0  0  0
   -2.9319   11.9590   -5.7436 Cl  0  0  0  0  0  0  0  0  0  0  0  0
    1.1031    1.5736   -0.1105 H   0  0  0  0  0  0  0  0  0  0  0  0
   -0.4656    1.6220   -0.9502 H   0  0  0  0  0  0  0  0  0  0  0  0
   -0.4091    1.5816    0.8284 H   0  0  0  0  0  0  0  0  0  0  0  0
   -2.2571    1.0491   -0.0115 H   0  0  0  0  0  0  0  0  0  0  0  0
   -4.6132   -2.4844    0.3784 H   0  0  0  0  0  0  0  0  0  0  0  0
   -2.5749   -3.8617    0.3022 H   0  0  0  0  0  0  0  0  0  0  0  0
    0.2596   -3.1148    0.9123 H   0  0  0  0  0  0  0  0  0  0  0  0
   -5.9232   -1.1521    3.1923 H   0  0  0  0  0  0  0  0  0  0  0  0
   -4.3099   -0.4779    2.8593 H   0  0  0  0  0  0  0  0  0  0  0  0
   -5.2538    1.8141    2.9278 H   0  0  0  0  0  0  0  0  0  0  0  0
   -6.8670    1.1398    3.2609 H   0  0  0  0  0  0  0  0  0  0  0  0
   -6.0064    0.1109    5.3464 H   0  0  0  0  0  0  0  0  0  0  0  0
   -4.3931    0.7852    5.0134 H   0  0  0  0  0  0  0  0  0  0  0  0
   -5.6707    2.2024    6.4504 H   0  0  0  0  0  0  0  0  0  0  0  0
   -5.2618    2.5549   -0.7651 H   0  0  0  0  0  0  0  0  0  0  0  0
   -4.8418    4.9030   -1.3523 H   0  0  0  0  0  0  0  0  0  0  0  0
   -3.9833    3.7542   -5.3835 H   0  0  0  0  0  0  0  0  0  0  0  0
   -4.3893    1.4010   -4.8068 H   0  0  0  0  0  0  0  0  0  0  0  0
   -2.8681    5.5194   -5.3208 H   0  0  0  0  0  0  0  0  0  0  0  0
   -4.5852    5.7206   -5.7442 H   0  0  0  0  0  0  0  0  0  0  0  0
   -5.6116    7.9225   -5.7585 H   0  0  0  0  0  0  0  0  0  0  0  0
   -5.2616   10.3443   -6.0317 H   0  0  0  0  0  0  0  0  0  0  0  0
   -1.1408    9.8591   -5.0363 H   0  0  0  0  0  0  0  0  0  0  0  0
   -1.4952    7.4391   -4.7531 H   0  0  0  0  0  0  0  0  0  0  0  0
  1  2  1  0  0  0  0
  1 39  1  0  0  0  0
  1 40  1  0  0  0  0
  1 41  1  0  0  0  0
  2  3  1  0  0  0  0
  3  8  2  0  0  0  0
  3  4  1  0  0  0  0
  4  5  2  0  0  0  0
  4 42  1  0  0  0  0
  5  6  1  0  0  0  0
  5 10  1  0  0  0  0
  6  7  2  0  0  0  0
  6 43  1  0  0  0  0
  7  8  1  0  0  0  0
  7 44  1  0  0  0  0
  8  9  1  0  0  0  0
  9 45  1  0  0  0  0
 10 11  1  1  0  0  0
 10 16  1  0  0  0  0
 10 12  1  0  0  0  0
 12 13  2  0  0  0  0
 12 22  1  0  0  0  0
 13 14  1  0  0  0  0
 13 21  1  0  0  0  0
 14 15  2  0  0  0  0
 14 16  1  0  0  0  0
 16 17  1  0  0  0  0
 17 18  1  0  0  0  0
 17 46  1  0  0  0  0
 17 47  1  0  0  0  0
 18 19  1  0  0  0  0
 18 48  1  0  0  0  0
 18 49  1  0  0  0  0
 19 20  1  0  0  0  0
 19 50  1  0  0  0  0
 19 51  1  0  0  0  0
 20 52  1  0  0  0  0
 22 23  2  0  0  0  0
 22 24  1  0  0  0  0
 24 29  2  0  0  0  0
 24 25  1  0  0  0  0
 25 26  2  0  0  0  0
 25 53  1  0  0  0  0
 26 27  1  0  0  0  0
 26 54  1  0  0  0  0
 27 28  2  0  0  0  0
 27 30  1  0  0  0  0
 28 29  1  0  0  0  0
 28 55  1  0  0  0  0
 29 56  1  0  0  0  0
 30 31  1  0  0  0  0
 31 32  1  0  0  0  0
 31 57  1  0  0  0  0
 31 58  1  0  0  0  0
 32 37  2  0  0  0  0
 32 33  1  0  0  0  0
 33 34  2  0  0  0  0
 33 59  1  0  0  0  0
 34 35  1  0  0  0  0
 34 60  1  0  0  0  0
 35 36  2  0  0  0  0
 35 38  1  0  0  0  0
 36 37  1  0  0  0  0
 36 61  1  0  0  0  0
 37 62  1  0  0  0  0
M  CHG  1  21  -1
M  END
$$$$
ZINC21533891
 OpenBabel01252620473D

 55 57  0  0  0  0  0  0  0  0999 V2000
   -0.0187    1.5258    0.0104 C   0  0  0  0  0  0  0  0  0  0  0  0
    0.0021   -0.0041    0.0020 C   0  0  0  0  0  0  0  0  0  0  0  0
    0.6878   -0.4765   -1.2033 N   0  0  0  0  0  0  0  0  0  0  0  0
    0.1101   -0.7374   -2.3947 C   0  0  0  0  0  0  0  0  0  0  0  0
    1.0809   -1.1499   -3.2423 C   0  0  0  0  0  0  0  0  0  0  0  0
    2.2934   -1.1408   -2.5450 C   0  0  0  0  0  0  0  0  0  0  0  0
    2.0599   -0.7315   -1.3244 N   0  0  0  0  0  0  0  0  0  0  0  0
    3.6376   -1.5286   -3.1050 C   0  0  0  0  0  0  0  0  0  0  0  0
    0.8894   -1.5493   -4.6827 C   0  0  0  0  0  0  0  0  0  0  0  0
    1.0482   -0.3191   -5.5785 C   0  0  0  0  0  0  0  0  0  0  0  0
    0.8620   -0.7074   -6.9788 N   0  0  0  0  0  0  0  0  0  0  0  0
   -0.4741   -0.6680   -7.5784 C   0  0  0  0  0  0  0  0  0  0  0  0
    1.9545   -1.1138   -7.7395 C   0  0  0  0  0  0  0  0  0  0  0  0
    2.3090   -2.4577   -7.7822 C   0  0  0  0  0  0  0  0  0  0  0  0
    3.3887   -2.8649   -8.5330 C   0  0  0  0  0  0  0  0  0  0  0  0
    4.1333   -1.9261   -9.2555 C   0  0  0  0  0  0  0  0  0  0  0  0
    3.7779   -0.5727   -9.2138 C   0  0  0  0  0  0  0  0  0  0  0  0
    2.6901   -0.1708   -8.4638 C   0  0  0  0  0  0  0  0  0  0  0  0
    2.3277    1.1813   -8.4239 N   0  0  0  0  0  2  0  0  0  0  0  0
    3.1992    2.2978   -9.2819 S   0  0  0  0  0  0  0  0  0  0  0  0
    4.4919    2.3432   -8.6937 O   0  0  0  0  0  0  0  0  0  0  0  0
    2.9978    2.0007  -10.6569 O   0  0  0  0  0  0  0  0  0  0  0  0
    2.4589    3.8705   -8.9929 C   0  0  0  0  0  0  0  0  0  0  0  0
    2.7357    4.7795   -8.0263 C   0  0  0  0  0  0  0  0  0  0  0  0
    2.0192    5.9611   -7.9923 C   0  0  0  0  0  0  0  0  0  0  0  0
    1.0610    6.1758   -8.9266 C   0  0  0  0  0  0  0  0  0  0  0  0
    1.1551    4.6835   -9.9019 S   0  0  0  0  0  0  0  0  0  0  0  0
    5.2879   -2.3606  -10.0574 C   0  0  0  0  0  0  0  0  0  0  0  0
    5.5978   -3.5437  -10.0928 O   0  0  0  0  0  0  0  0  0  0  0  0
    5.9383   -1.5388  -10.6889 O   0  0  0  0  0  1  0  0  0  0  0  0
   -1.3540   -0.5953   -2.7222 C   0  0  0  0  0  0  0  0  0  0  0  0
    1.0039    1.9031    0.0027 H   0  0  0  0  0  0  0  0  0  0  0  0
   -0.5459    1.8868   -0.8726 H   0  0  0  0  0  0  0  0  0  0  0  0
   -0.5289    1.8773    0.9072 H   0  0  0  0  0  0  0  0  0  0  0  0
    0.5293   -0.3651    0.8851 H   0  0  0  0  0  0  0  0  0  0  0  0
   -1.0205   -0.3814    0.0098 H   0  0  0  0  0  0  0  0  0  0  0  0
    4.1214   -0.6494   -3.5305 H   0  0  0  0  0  0  0  0  0  0  0  0
    4.2597   -1.9356   -2.3078 H   0  0  0  0  0  0  0  0  0  0  0  0
    3.5041   -2.2815   -3.8819 H   0  0  0  0  0  0  0  0  0  0  0  0
    1.6355   -2.2958   -4.9550 H   0  0  0  0  0  0  0  0  0  0  0  0
   -0.1083   -1.9680   -4.8140 H   0  0  0  0  0  0  0  0  0  0  0  0
    0.3021    0.4274   -5.3062 H   0  0  0  0  0  0  0  0  0  0  0  0
    2.0459    0.0996   -5.4471 H   0  0  0  0  0  0  0  0  0  0  0  0
   -0.6461    0.3145   -8.0181 H   0  0  0  0  0  0  0  0  0  0  0  0
   -0.5471   -1.4307   -8.3536 H   0  0  0  0  0  0  0  0  0  0  0  0
   -1.2231   -0.8583   -6.8098 H   0  0  0  0  0  0  0  0  0  0  0  0
    1.7361   -3.1839   -7.2246 H   0  0  0  0  0  0  0  0  0  0  0  0
    3.6613   -3.9094   -8.5640 H   0  0  0  0  0  0  0  0  0  0  0  0
    4.3503    0.1547   -9.7702 H   0  0  0  0  0  0  0  0  0  0  0  0
    3.5044    4.5834   -7.2934 H   0  0  0  0  0  0  0  0  0  0  0  0
    2.2197    6.7019   -7.2325 H   0  0  0  0  0  0  0  0  0  0  0  0
    0.4118    7.0299   -9.0511 H   0  0  0  0  0  0  0  0  0  0  0  0
   -1.5475    0.4117   -3.0919 H   0  0  0  0  0  0  0  0  0  0  0  0
   -1.6273   -1.3220   -3.4873 H   0  0  0  0  0  0  0  0  0  0  0  0
   -1.9461   -0.7727   -1.8245 H   0  0  0  0  0  0  0  0  0  0  0  0
  1  2  1  0  0  0  0
  1 32  1  0  0  0  0
  1 33  1  0  0  0  0
  1 34  1  0  0  0  0
  2  3  1  0  0  0  0
  2 35  1  0  0  0  0
  2 36  1  0  0  0  0
  3  7  1  0  0  0  0
  3  4  1  0  0  0  0
  4  5  2  0  0  0  0
  4 31  1  0  0  0  0
  5  6  1  0  0  0  0
  5  9  1  0  0  0  0
  6  7  2  0  0  0  0
  6  8  1  0  0  0  0
  8 37  1  0  0  0  0
  8 38  1  0  0  0  0
  8 39  1  0  0  0  0
  9 10  1  0  0  0  0
  9 40  1  0  0  0  0
  9 41  1  0  0  0  0
 10 11  1  0  0  0  0
 10 42  1  0  0  0  0
 10 43  1  0  0  0  0
 11 12  1  0  0  0  0
 11 13  1  0  0  0  0
 12 44  1  0  0  0  0
 12 45  1  0  0  0  0
 12 46  1  0  0  0  0
 13 18  2  0  0  0  0
 13 14  1  0  0  0  0
 14 15  2  0  0  0  0
 14 47  1  0  0  0  0
 15 16  1  0  0  0  0
 15 48  1  0  0  0  0
 16 17  2  0  0  0  0
 16 28  1  0  0  0  0
 17 18  1  0  0  0  0
 17 49  1  0  0  0  0
 18 19  1  0  0  0  0
 19 20  1  0  0  0  0
 20 21  2  0  0  0  0
 20 22  2  0  0  0  0
 20 23  1  0  0  0  0
 23 27  1  0  0  0  0
 23 24  2  0  0  0  0
 24 25  1  0  0  0  0
 24 50  1  0  0  0  0
 25 26  2  0  0  0  0
 25 51  1  0  0  0  0
 26 27  1  0  0  0  0
 26 52  1  0  0  0  0
 28 29  2  0  0  0  0
 28 30  1  0  0  0  0
 31 53  1  0  0  0  0
 31 54  1  0  0  0  0
 31 55  1  0  0  0  0
M  END
$$$$
ZINC67190219
 OpenBabel01252620473D

 48 49  0  0  0  0  0  0  0  0999 V2000
   -0.0184    1.5028    0.0103 C   0  0  0  0  0  0  0  0  0  0  0  0
    0.0021   -0.0041    0.0020 C   0  0  0  0  0  0  0  0  0  0  0  0
   -1.0761   -0.8071    0.0026 C   0  0  0  0  0  0  0  0  0  0  0  0
   -0.6252   -2.1469   -0.0076 C   0  0  0  0  0  0  0  0  0  0  0  0
    0.6837   -2.1300   -0.0140 N   0  0  0  0  0  0  0  0  0  0  0  0
    1.0999   -0.7764   -0.0131 O   0  0  0  0  0  0  0  0  0  0  0  0
   -1.4296   -3.2817   -0.0100 N   0  0  0  0  0  2  0  0  0  0  0  0
   -0.7384   -4.7865   -0.0224 S   0  0  0  0  0  0  0  0  0  0  0  0
   -0.0749   -4.9184   -1.2721 O   0  0  0  0  0  0  0  0  0  0  0  0
   -0.0617   -4.9329    1.2185 O   0  0  0  0  0  0  0  0  0  0  0  0
   -2.0505   -5.9625   -0.0223 C   0  0  0  0  0  0  0  0  0  0  0  0
   -2.5621   -6.4260    1.1770 C   0  0  0  0  0  0  0  0  0  0  0  0
   -3.5922   -7.3493    1.1859 C   0  0  0  0  0  0  0  0  0  0  0  0
   -4.1161   -7.8145   -0.0028 C   0  0  0  0  0  0  0  0  0  0  0  0
   -3.6048   -7.3511   -1.2158 C   0  0  0  0  0  0  0  0  0  0  0  0
   -2.5693   -6.4149   -1.2177 C   0  0  0  0  0  0  0  0  0  0  0  0
   -4.1610   -7.8456   -2.4933 C   0  0  0  0  0  0  0  0  0  0  0  0
   -3.7136   -7.4402   -3.5483 O   0  0  0  0  0  0  0  0  0  0  0  0
   -5.1640   -8.7458   -2.4881 N   0  0  0  0  0  0  0  0  0  0  0  0
   -5.6910   -9.2143   -3.6986 N   0  0  0  0  0  0  0  0  0  0  0  0
   -6.6941  -10.1145   -3.6934 C   0  0  0  0  0  0  0  0  0  0  0  0
   -7.1404  -10.5190   -2.6408 O   0  0  0  0  0  0  0  0  0  0  0  0
   -7.2610  -10.6186   -4.9956 C   0  0  0  0  0  0  0  0  0  0  0  0
   -8.3792  -11.6231   -4.7102 C   0  0  0  0  0  0  0  0  0  0  0  0
   -8.9547  -12.1348   -6.0322 C   0  0  0  0  0  0  0  0  0  0  0  0
   -9.9854  -13.2298   -5.7499 C   0  0  0  0  0  0  0  0  0  0  0  0
   -9.6283  -10.9799   -6.7762 C   0  0  0  0  0  0  0  0  0  0  0  0
    1.0042    1.8801    0.0026 H   0  0  0  0  0  0  0  0  0  0  0  0
   -0.5455    1.8639   -0.8728 H   0  0  0  0  0  0  0  0  0  0  0  0
   -0.5286    1.8543    0.9071 H   0  0  0  0  0  0  0  0  0  0  0  0
   -2.1069   -0.4849    0.0099 H   0  0  0  0  0  0  0  0  0  0  0  0
   -2.1551   -6.0657    2.1102 H   0  0  0  0  0  0  0  0  0  0  0  0
   -3.9870   -7.7071    2.1253 H   0  0  0  0  0  0  0  0  0  0  0  0
   -4.9198   -8.5358    0.0055 H   0  0  0  0  0  0  0  0  0  0  0  0
   -2.1722   -6.0490   -2.1530 H   0  0  0  0  0  0  0  0  0  0  0  0
   -5.5210   -9.0693   -1.6462 H   0  0  0  0  0  0  0  0  0  0  0  0
   -5.3341   -8.8909   -4.5406 H   0  0  0  0  0  0  0  0  0  0  0  0
   -7.6622   -9.7806   -5.5657 H   0  0  0  0  0  0  0  0  0  0  0  0
   -6.4733  -11.1053   -5.5706 H   0  0  0  0  0  0  0  0  0  0  0  0
   -7.9780  -12.4610   -4.1400 H   0  0  0  0  0  0  0  0  0  0  0  0
   -9.1669  -11.1363   -4.1352 H   0  0  0  0  0  0  0  0  0  0  0  0
   -8.1506  -12.5420   -6.6452 H   0  0  0  0  0  0  0  0  0  0  0  0
  -10.7895  -12.8225   -5.1370 H   0  0  0  0  0  0  0  0  0  0  0  0
  -10.3955  -13.5943   -6.6918 H   0  0  0  0  0  0  0  0  0  0  0  0
   -9.5055  -14.0525   -5.2199 H   0  0  0  0  0  0  0  0  0  0  0  0
  -10.4324  -10.5727   -6.1632 H   0  0  0  0  0  0  0  0  0  0  0  0
   -8.8941  -10.1999   -6.9773 H   0  0  0  0  0  0  0  0  0  0  0  0
  -10.0384  -11.3445   -7.7180 H   0  0  0  0  0  0  0  0  0  0  0  0
  1  2  1  0  0  0  0
  1 28  1  0  0  0  0
  1 29  1  0  0  0  0
  1 30  1  0  0  0  0
  2  6  1  0  0  0  0
  2  3  2  0  0  0  0
  3  4  1  0  0  0  0
  3 31  1  0  0  0  0
  4  5  2  0  0  0  0
  4  7  1  0  0  0  0
  5  6  1  0  0  0  0
  7  8  1  0  0  0  0
  8  9  2  0  0  0  0
  8 10  2  0  0  0  0
  8 11  1  0  0  0  0
 11 16  2  0  0  0  0
 11 12  1  0  0  0  0
 12 13  2  0  0  0  0
 12 32  1  0  0  0  0
 13 14  1  0  0  0  0
 13 33  1  0  0  0  0
 14 15  2  0  0  0  0
 14 34  1  0  0  0  0
 15 16  1  0  0  0  0
 15 17  1  0  0  0  0
 16 35  1  0  0  0  0
 17 18  2  0  0  0  0
 17 19  1  0  0  0  0
 19 20  1  0  0  0  0
 19 36  1  0  0  0  0
 20 21  1  0  0  0  0
 20 37  1  0  0  0  0
 21 22  2  0  0  0  0
 21 23  1  0  0  0  0
 23 24  1  0  0  0  0
 23 38  1  0  0  0  0
 23 39  1  0  0  0  0
 24 25  1  0  0  0  0
 24 40  1  0  0  0  0
 24 41  1  0  0  0  0
 25 26  1  0  0  0  0
 25 27  1  0  0  0  0
 25 42  1  0  0  0  0
 26 43  1  0  0  0  0
 26 44  1  0  0  0  0
 26 45  1  0  0  0  0
 27 46  1  0  0  0  0
 27 47  1  0  0  0  0
 27 48  1  0  0  0  0
M  END
$$$$
ZINC13247768
 OpenBabel01252620473D

 59 61  0  0  0  0  0  0  0  0999 V2000
   -0.6283    2.5396    1.9458 C   0  0  0  0  0  0  0  0  0  0  0  0
   -1.6731    2.6431    0.8647 C   0  0  0  0  0  0  0  0  0  0  0  0
   -1.4820    3.5033   -0.1970 C   0  0  0  0  0  0  0  0  0  0  0  0
   -2.4509    3.5979   -1.1976 C   0  0  0  0  0  0  0  0  0  0  0  0
   -3.6105    2.8243   -1.1133 C   0  0  0  0  0  0  0  0  0  0  0  0
   -3.7863    1.9646   -0.0492 C   0  0  0  0  0  0  0  0  0  0  0  0
   -2.8218    1.8758    0.9392 C   0  0  0  0  0  0  0  0  0  0  0  0
   -3.0240    0.9392    2.1024 C   0  0  0  0  0  0  0  0  0  0  0  0
   -5.2455    0.9827    0.0557 S   0  0  0  0  0  0  0  0  0  0  0  0
   -6.0654    1.3548   -1.0436 O   0  0  0  0  0  0  0  0  0  0  0  0
   -4.8197   -0.3560    0.2697 O   0  0  0  0  0  0  0  0  0  0  0  0
   -6.0512    1.4478    1.4258 N   0  0  0  0  0  0  0  0  0  0  0  0
   -6.5770    2.7225    1.5191 C   0  0  0  0  0  0  0  0  0  0  0  0
   -7.3591    3.2617    2.5325 C   0  0  0  0  0  0  0  0  0  0  0  0
   -7.7870    4.6437    2.3864 C   0  0  0  0  0  0  0  0  0  0  0  0
   -7.3684    5.2594    1.2606 C   0  0  0  0  0  0  0  0  0  0  0  0
   -6.4144    4.0386    0.4040 S   0  0  0  0  0  0  0  0  0  0  0  0
   -7.6520    6.6696    0.8433 C   0  0  0  0  0  0  0  0  0  0  0  0
   -8.8041    7.2067    1.7049 C   0  0  0  0  0  0  0  0  0  0  0  0
   -8.5143    6.8829    3.1734 C   0  0  0  0  0  0  0  0  0  0  0  0
   -8.6456    5.3772    3.4094 C   0  0  0  0  0  0  0  0  0  0  0  0
   -7.7379    2.4685    3.7039 C   0  0  0  0  0  0  0  0  0  0  0  0
   -7.0248    2.4612    4.6905 O   0  0  0  0  0  0  0  0  0  0  0  0
   -8.8759    1.7466    3.6896 N   0  0  0  0  0  0  0  0  0  0  0  0
   -9.2549    0.9532    4.8614 C   0  0  0  0  0  0  0  0  0  0  0  0
  -10.5778    0.2359    4.5855 C   0  0  0  0  0  0  0  0  0  0  0  0
  -10.9736   -0.5927    5.8092 C   0  0  0  0  0  0  0  0  0  0  0  0
  -12.2093   -1.2627    5.5515 O   0  0  0  0  0  0  0  0  0  0  0  0
  -12.6709   -2.0687    6.6375 C   0  0  0  0  0  0  0  0  0  0  0  0
   -2.2531    4.5166   -2.3374 C   0  0  0  0  0  0  0  0  0  0  0  0
   -3.0979    4.5968   -3.2066 O   0  0  0  0  0  0  0  0  0  0  0  0
   -0.8441    3.2650    2.7302 H   0  0  0  0  0  0  0  0  0  0  0  0
   -0.6400    1.5345    2.3673 H   0  0  0  0  0  0  0  0  0  0  0  0
    0.3547    2.7445    1.5219 H   0  0  0  0  0  0  0  0  0  0  0  0
   -0.5848    4.1018   -0.2540 H   0  0  0  0  0  0  0  0  0  0  0  0
   -4.3661    2.8963   -1.8816 H   0  0  0  0  0  0  0  0  0  0  0  0
   -3.4620    1.4861    2.9374 H   0  0  0  0  0  0  0  0  0  0  0  0
   -3.6931    0.1313    1.8064 H   0  0  0  0  0  0  0  0  0  0  0  0
   -2.0631    0.5228    2.4049 H   0  0  0  0  0  0  0  0  0  0  0  0
   -6.1541    0.8256    2.1627 H   0  0  0  0  0  0  0  0  0  0  0  0
   -7.9390    6.6907   -0.2080 H   0  0  0  0  0  0  0  0  0  0  0  0
   -6.7637    7.2829    0.9944 H   0  0  0  0  0  0  0  0  0  0  0  0
   -9.7378    6.7321    1.4034 H   0  0  0  0  0  0  0  0  0  0  0  0
   -8.8854    8.2863    1.5780 H   0  0  0  0  0  0  0  0  0  0  0  0
   -9.2250    7.4123    3.8080 H   0  0  0  0  0  0  0  0  0  0  0  0
   -7.5015    7.2012    3.4202 H   0  0  0  0  0  0  0  0  0  0  0  0
   -9.6875    5.0786    3.2933 H   0  0  0  0  0  0  0  0  0  0  0  0
   -8.3051    5.1319    4.4154 H   0  0  0  0  0  0  0  0  0  0  0  0
   -9.4441    1.7525    2.9034 H   0  0  0  0  0  0  0  0  0  0  0  0
   -8.4784    0.2166    5.0679 H   0  0  0  0  0  0  0  0  0  0  0  0
   -9.3707    1.6104    5.7232 H   0  0  0  0  0  0  0  0  0  0  0  0
  -11.3543    0.9725    4.3789 H   0  0  0  0  0  0  0  0  0  0  0  0
  -10.4620   -0.4213    3.7236 H   0  0  0  0  0  0  0  0  0  0  0  0
  -10.1971   -1.3293    6.0158 H   0  0  0  0  0  0  0  0  0  0  0  0
  -11.0895    0.0645    6.6710 H   0  0  0  0  0  0  0  0  0  0  0  0
  -11.9297   -2.8359    6.8612 H   0  0  0  0  0  0  0  0  0  0  0  0
  -12.8220   -1.4421    7.5165 H   0  0  0  0  0  0  0  0  0  0  0  0
  -13.6132   -2.5429    6.3630 H   0  0  0  0  0  0  0  0  0  0  0  0
   -1.1385    5.2696   -2.4100 O   0  0  0  0  0  1  0  0  0  0  0  0
  1  2  1  0  0  0  0
  1 32  1  0  0  0  0
  1 33  1  0  0  0  0
  1 34  1  0  0  0  0
  2  7  2  0  0  0  0
  2  3  1  0  0  0  0
  3  4  2  0  0  0  0
  3 35  1  0  0  0  0
  4  5  1  0  0  0  0
  4 30  1  0  0  0  0
  5  6  2  0  0  0  0
  5 36  1  0  0  0  0
  6  7  1  0  0  0  0
  6  9  1  0  0  0  0
  7  8  1  0  0  0  0
  8 37  1  0  0  0  0
  8 38  1  0  0  0  0
  8 39  1  0  0  0  0
  9 10  2  0  0  0  0
  9 11  2  0  0  0  0
  9 12  1  0  0  0  0
 12 13  1  0  0  0  0
 12 40  1  0  0  0  0
 13 17  1  0  0  0  0
 13 14  2  0  0  0  0
 14 15  1  0  0  0  0
 14 22  1  0  0  0  0
 15 21  1  0  0  0  0
 15 16  2  0  0  0  0
 16 17  1  0  0  0  0
 16 18  1  0  0  0  0
 18 19  1  0  0  0  0
 18 41  1  0  0  0  0
 18 42  1  0  0  0  0
 19 20  1  0  0  0  0
 19 43  1  0  0  0  0
 19 44  1  0  0  0  0
 20 21  1  0  0  0  0
 20 45  1  0  0  0  0
 20 46  1  0  0  0  0
 21 47  1  0  0  0  0
 21 48  1  0  0  0  0
 22 23  2  0  0  0  0
 22 24  1  0  0  0  0
 24 25  1  0  0  0  0
 24 49  1  0  0  0  0
 25 26  1  0  0  0  0
 25 50  1  0  0  0  0
 25 51  1  0  0  0  0
 26 27  1  0  0  0  0
 26 52  1  0  0  0  0
 26 53  1  0  0  0  0
 27 28  1  0  0  0  0
 27 54  1  0  0  0  0
 27 55  1  0  0  0  0
 28 29  1  0  0  0  0
 29 56  1  0  0  0  0
 29 57  1  0  0  0  0
 29 58  1  0  0  0  0
 30 31  2  0  0  0  0
 30 59  1  0  0  0  0
M  END
$$$$
ZINC55676642
 OpenBabel01252620473D

 38 40  0  0  0  0  0  0  0  0999 V2000
    2.6336   -6.8407   -1.2623 C   0  0  0  0  0  0  0  0  0  0  0  0
    1.3332   -6.0917   -1.1243 C   0  0  0  0  0  0  0  0  0  0  0  0
    0.3081   -6.5710   -1.5609 O   0  0  0  0  0  0  0  0  0  0  0  0
    1.3093   -4.8893   -0.5159 N   0  0  0  0  0  0  0  0  0  0  0  0
    0.1214   -4.1504   -0.4727 C   0  0  0  0  0  0  0  0  0  0  0  0
    0.1614   -2.7644   -0.5596 C   0  0  0  0  0  0  0  0  0  0  0  0
   -1.0105   -2.0337   -0.5171 C   0  0  0  0  0  0  0  0  0  0  0  0
   -2.2263   -2.6789   -0.3880 C   0  0  0  0  0  0  0  0  0  0  0  0
   -2.2726   -4.0656   -0.3005 C   0  0  0  0  0  0  0  0  0  0  0  0
   -1.0973   -4.8018   -0.3487 C   0  0  0  0  0  0  0  0  0  0  0  0
   -3.5017   -4.7177   -0.1695 N   0  0  0  0  0  2  0  0  0  0  0  0
   -3.5489   -6.3571    0.0591 S   0  0  0  0  0  0  0  0  0  0  0  0
   -3.0311   -6.9474   -1.1252 O   0  0  0  0  0  0  0  0  0  0  0  0
   -2.9889   -6.6047    1.3414 O   0  0  0  0  0  0  0  0  0  0  0  0
   -5.2461   -6.8214    0.1527 C   0  0  0  0  0  0  0  0  0  0  0  0
   -5.8904   -6.8315    1.3815 C   0  0  0  0  0  0  0  0  0  0  0  0
   -7.2184   -7.1912    1.4765 C   0  0  0  0  0  0  0  0  0  0  0  0
   -7.9211   -7.5476    0.3324 C   0  0  0  0  0  0  0  0  0  0  0  0
   -7.2650   -7.5362   -0.9108 C   0  0  0  0  0  0  0  0  0  0  0  0
   -5.9194   -7.1633   -0.9864 C   0  0  0  0  0  0  0  0  0  0  0  0
   -8.0139   -7.9138   -2.1133 C   0  0  0  0  0  0  0  0  0  0  0  0
   -9.3183   -8.2607   -1.9732 C   0  0  0  0  0  0  0  0  0  0  0  0
   -9.9137   -8.2499   -0.6931 C   0  0  0  0  0  0  0  0  0  0  0  0
  -11.0850   -8.5634   -0.5808 O   0  0  0  0  0  0  0  0  0  0  0  0
   -9.2215   -7.9034    0.4031 O   0  0  0  0  0  0  0  0  0  0  0  0
   -3.6962   -1.7567   -0.3344 Cl  0  0  0  0  0  0  0  0  0  0  0  0
    2.4562   -7.7850   -1.7769 H   0  0  0  0  0  0  0  0  0  0  0  0
    3.3392   -6.2407   -1.8369 H   0  0  0  0  0  0  0  0  0  0  0  0
    3.0459   -7.0381   -0.2728 H   0  0  0  0  0  0  0  0  0  0  0  0
    2.1153   -4.5361   -0.1080 H   0  0  0  0  0  0  0  0  0  0  0  0
    1.1097   -2.2575   -0.6602 H   0  0  0  0  0  0  0  0  0  0  0  0
   -0.9765   -0.9564   -0.5846 H   0  0  0  0  0  0  0  0  0  0  0  0
   -1.1308   -5.8794   -0.2855 H   0  0  0  0  0  0  0  0  0  0  0  0
   -5.3464   -6.5552    2.2726 H   0  0  0  0  0  0  0  0  0  0  0  0
   -7.7106   -7.1962    2.4378 H   0  0  0  0  0  0  0  0  0  0  0  0
   -5.4133   -7.1492   -1.9404 H   0  0  0  0  0  0  0  0  0  0  0  0
   -7.5405   -7.9154   -3.0840 H   0  0  0  0  0  0  0  0  0  0  0  0
   -9.8994   -8.5439   -2.8384 H   0  0  0  0  0  0  0  0  0  0  0  0
  1  2  1  0  0  0  0
  1 27  1  0  0  0  0
  1 28  1  0  0  0  0
  1 29  1  0  0  0  0
  2  3  2  0  0  0  0
  2  4  1  0  0  0  0
  4  5  1  0  0  0  0
  4 30  1  0  0  0  0
  5 10  2  0  0  0  0
  5  6  1  0  0  0  0
  6  7  2  0  0  0  0
  6 31  1  0  0  0  0
  7  8  1  0  0  0  0
  7 32  1  0  0  0  0
  8  9  2  0  0  0  0
  8 26  1  0  0  0  0
  9 10  1  0  0  0  0
  9 11  1  0  0  0  0
 10 33  1  0  0  0  0
 11 12  1  0  0  0  0
 12 13  2  0  0  0  0
 12 14  2  0  0  0  0
 12 15  1  0  0  0  0
 15 20  2  0  0  0  0
 15 16  1  0  0  0  0
 16 17  2  0  0  0  0
 16 34  1  0  0  0  0
 17 18  1  0  0  0  0
 17 35  1  0  0  0  0
 18 25  1  0  0  0  0
 18 19  2  0  0  0  0
 19 20  1  0  0  0  0
 19 21  1  0  0  0  0
 20 36  1  0  0  0  0
 21 22  2  0  0  0  0
 21 37  1  0  0  0  0
 22 23  1  0  0  0  0
 22 38  1  0  0  0  0
 23 24  2  0  0  0  0
 23 25  1  0  0  0  0
M  END
$$$$
ZINC63711854
 OpenBabel01252620473D

 48 50  0  0  0  0  0  0  0  0999 V2000
    0.4790    2.3915   -3.2941 C   0  0  0  0  0  0  0  0  0  0  0  0
    0.6251    1.0518   -4.0186 C   0  0  0  0  0  0  0  0  0  0  0  0
    0.9693   -0.0413   -3.0050 C   0  0  0  0  0  0  0  0  0  0  0  0
    1.1426   -1.6296   -3.8640 S   0  0  0  0  0  0  0  0  0  0  0  0
   -0.1169   -2.0540   -4.3669 O   0  0  0  0  0  0  0  0  0  0  0  0
    2.2885   -1.6093   -4.7040 O   0  0  0  0  0  0  0  0  0  0  0  0
    1.5110   -2.7196   -2.6730 N   0  0  0  0  0  2  0  0  0  0  0  0
    1.7147   -4.0655   -2.9953 C   0  0  0  0  0  0  0  0  0  0  0  0
    1.6136   -4.4867   -4.3150 C   0  0  0  0  0  0  0  0  0  0  0  0
    1.8151   -5.8148   -4.6331 C   0  0  0  0  0  0  0  0  0  0  0  0
    2.1184   -6.7300   -3.6334 C   0  0  0  0  0  0  0  0  0  0  0  0
    2.2196   -6.3090   -2.3137 C   0  0  0  0  0  0  0  0  0  0  0  0
    2.0238   -4.9798   -1.9963 C   0  0  0  0  0  0  0  0  0  0  0  0
    2.3219   -8.0773   -3.9559 N   0  0  0  0  0  0  0  0  0  0  0  0
    2.8814   -8.4107   -5.1359 C   0  0  0  0  0  0  0  0  0  0  0  0
    3.2973   -7.5417   -5.8791 O   0  0  0  0  0  0  0  0  0  0  0  0
    2.9890   -9.8214   -5.5242 C   0  0  0  0  0  0  0  0  0  0  0  0
    3.5480  -10.1545   -6.7029 C   0  0  0  0  0  0  0  0  0  0  0  0
    3.6561  -11.5717   -7.0930 C   0  0  0  0  0  0  0  0  0  0  0  0
    4.2478  -11.9028   -8.3252 C   0  0  0  0  0  0  0  0  0  0  0  0
    4.3533  -13.2102   -8.6965 C   0  0  0  0  0  0  0  0  0  0  0  0
    3.8585  -14.1957   -7.8196 C   0  0  0  0  0  0  0  0  0  0  0  0
    3.9359  -15.5601   -8.1401 C   0  0  0  0  0  0  0  0  0  0  0  0
    3.4479  -16.4858   -7.2687 C   0  0  0  0  0  0  0  0  0  0  0  0
    2.8709  -16.0976   -6.0606 C   0  0  0  0  0  0  0  0  0  0  0  0
    2.7784  -14.7847   -5.7168 C   0  0  0  0  0  0  0  0  0  0  0  0
    3.2723  -13.7974   -6.5905 C   0  0  0  0  0  0  0  0  0  0  0  0
    3.1997  -12.5039   -6.2749 N   0  0  0  0  0  0  0  0  0  0  0  0
   -0.3174    2.3190   -2.5534 H   0  0  0  0  0  0  0  0  0  0  0  0
    1.4165    2.6395   -2.7964 H   0  0  0  0  0  0  0  0  0  0  0  0
    0.2338    3.1702   -4.0162 H   0  0  0  0  0  0  0  0  0  0  0  0
   -0.3124    0.8037   -4.5163 H   0  0  0  0  0  0  0  0  0  0  0  0
    1.4216    1.1243   -4.7593 H   0  0  0  0  0  0  0  0  0  0  0  0
    1.9068    0.2068   -2.5073 H   0  0  0  0  0  0  0  0  0  0  0  0
    0.1729   -0.1138   -2.2643 H   0  0  0  0  0  0  0  0  0  0  0  0
    1.3770   -3.7751   -5.0923 H   0  0  0  0  0  0  0  0  0  0  0  0
    1.7364   -6.1423   -5.6592 H   0  0  0  0  0  0  0  0  0  0  0  0
    2.4555   -7.0207   -1.5364 H   0  0  0  0  0  0  0  0  0  0  0  0
    2.1065   -4.6516   -0.9707 H   0  0  0  0  0  0  0  0  0  0  0  0
    2.0601   -8.7707   -3.3301 H   0  0  0  0  0  0  0  0  0  0  0  0
    2.6199  -10.5928   -4.8645 H   0  0  0  0  0  0  0  0  0  0  0  0
    3.9171   -9.3832   -7.3626 H   0  0  0  0  0  0  0  0  0  0  0  0
    4.6172  -11.1236   -8.9754 H   0  0  0  0  0  0  0  0  0  0  0  0
    4.8043  -13.4835   -9.6390 H   0  0  0  0  0  0  0  0  0  0  0  0
    4.3799  -15.8741   -9.0732 H   0  0  0  0  0  0  0  0  0  0  0  0
    3.5084  -17.5351   -7.5171 H   0  0  0  0  0  0  0  0  0  0  0  0
    2.4909  -16.8513   -5.3868 H   0  0  0  0  0  0  0  0  0  0  0  0
    2.3277  -14.5008   -4.7772 H   0  0  0  0  0  0  0  0  0  0  0  0
  1  2  1  0  0  0  0
  1 29  1  0  0  0  0
  1 30  1  0  0  0  0
  1 31  1  0  0  0  0
  2  3  1  0  0  0  0
  2 32  1  0  0  0  0
  2 33  1  0  0  0  0
  3  4  1  0  0  0  0
  3 34  1  0  0  0  0
  3 35  1  0  0  0  0
  4  5  2  0  0  0  0
  4  6  2  0  0  0  0
  4  7  1  0  0  0  0
  7  8  1  0  0  0  0
  8 13  2  0  0  0  0
  8  9  1  0  0  0  0
  9 10  2  0  0  0  0
  9 36  1  0  0  0  0
 10 11  1  0  0  0  0
 10 37  1  0  0  0  0
 11 12  2  0  0  0  0
 11 14  1  0  0  0  0
 12 13  1  0  0  0  0
 12 38  1  0  0  0  0
 13 39  1  0  0  0  0
 14 15  1  0  0  0  0
 14 40  1  0  0  0  0
 15 16  2  0  0  0  0
 15 17  1  0  0  0  0
 17 18  2  0  0  0  0
 17 41  1  0  0  0  0
 18 19  1  0  0  0  0
 18 42  1  0  0  0  0
 19 28  2  0  0  0  0
 19 20  1  0  0  0  0
 20 21  2  0  0  0  0
 20 43  1  0  0  0  0
 21 22  1  0  0  0  0
 21 44  1  0  0  0  0
 22 27  2  0  0  0  0
 22 23  1  0  0  0  0
 23 24  2  0  0  0  0
 23 45  1  0  0  0  0
 24 25  1  0  0  0  0
 24 46  1  0  0  0  0
 25 26  2  0  0  0  0
 25 47  1  0  0  0  0
 26 27  1  0  0  0  0
 26 48  1  0  0  0  0
 27 28  1  0  0  0  0
M  END
$$$$
ZINC49224598
 OpenBabel01252620473D

 43 43  0  0  0  0  0  0  0  0999 V2000
   -0.0187    1.5258    0.0104 C   0  0  0  0  0  0  0  0  0  0  0  0
    0.0021   -0.0041    0.0020 C   0  0  0  0  0  0  0  0  0  0  0  0
    0.7182   -0.4975   -1.2568 C   0  0  0  0  0  0  0  0  0  0  0  0
    0.7390   -2.0273   -1.2652 C   0  0  0  0  0  0  0  0  0  0  0  0
    1.4551   -2.5207   -2.5240 C   0  0  0  0  0  0  0  0  0  0  0  0
    1.4758   -4.0506   -2.5324 C   0  0  0  0  0  0  0  0  0  0  0  0
    2.1616   -4.5230   -3.7377 N   0  0  0  0  0  0  0  0  0  0  0  0
    2.3018   -5.8565   -3.9614 C   0  0  0  0  0  0  0  0  0  0  0  0
    1.8108   -6.7425   -3.0756 O   0  5  0  0  0  0  0  0  0  0  0  0
    2.9563   -6.3074   -5.1118 C   0  0  0  0  0  0  0  0  0  0  0  0
    3.4788   -5.3645   -6.0543 C   0  0  0  0  0  0  0  0  0  0  0  0
    3.8933   -4.6165   -6.8021 N   0  0  0  0  0  0  0  0  0  0  0  0
    3.1016   -7.6895   -5.3435 C   0  0  0  0  0  0  0  0  0  0  0  0
    2.6583   -8.4895   -4.5438 O   0  0  0  0  0  0  0  0  0  0  0  0
    3.8070   -8.1755   -6.5834 C   0  0  0  0  0  0  0  0  0  0  0  0
    3.8264   -9.6043   -6.5913 O   0  0  0  0  0  0  0  0  0  0  0  0
    4.4304  -10.2076   -7.6495 C   0  0  0  0  0  0  0  0  0  0  0  0
    4.9973   -9.4396   -8.6556 C   0  0  0  0  0  0  0  0  0  0  0  0
    5.6111  -10.0538   -9.7301 C   0  0  0  0  0  0  0  0  0  0  0  0
    5.6604  -11.4357   -9.8035 C   0  0  0  0  0  0  0  0  0  0  0  0
    5.0948  -12.2041   -8.8006 C   0  0  0  0  0  0  0  0  0  0  0  0
    4.4853  -11.5924   -7.7210 C   0  0  0  0  0  0  0  0  0  0  0  0
    3.7199  -12.6419   -6.3467 Br  0  0  0  0  0  0  0  0  0  0  0  0
    6.2607  -12.0346  -10.8552 F   0  0  0  0  0  0  0  0  0  0  0  0
    1.0039    1.9031    0.0027 H   0  0  0  0  0  0  0  0  0  0  0  0
   -0.5459    1.8868   -0.8726 H   0  0  0  0  0  0  0  0  0  0  0  0
   -0.5289    1.8773    0.9072 H   0  0  0  0  0  0  0  0  0  0  0  0
    0.5293   -0.3651    0.8851 H   0  0  0  0  0  0  0  0  0  0  0  0
   -1.0205   -0.3814    0.0098 H   0  0  0  0  0  0  0  0  0  0  0  0
    0.1910   -0.1364   -2.1398 H   0  0  0  0  0  0  0  0  0  0  0  0
    1.7408   -0.1202   -1.2645 H   0  0  0  0  0  0  0  0  0  0  0  0
    1.2661   -2.3884   -0.3821 H   0  0  0  0  0  0  0  0  0  0  0  0
   -0.2836   -2.4046   -1.2575 H   0  0  0  0  0  0  0  0  0  0  0  0
    0.9279   -2.1597   -3.4071 H   0  0  0  0  0  0  0  0  0  0  0  0
    2.4777   -2.1435   -2.5317 H   0  0  0  0  0  0  0  0  0  0  0  0
    2.0030   -4.4117   -1.6494 H   0  0  0  0  0  0  0  0  0  0  0  0
    0.4533   -4.4279   -2.5247 H   0  0  0  0  0  0  0  0  0  0  0  0
    2.5155   -3.8843   -4.3762 H   0  0  0  0  0  0  0  0  0  0  0  0
    3.2798   -7.8144   -7.4665 H   0  0  0  0  0  0  0  0  0  0  0  0
    4.8296   -7.7982   -6.5911 H   0  0  0  0  0  0  0  0  0  0  0  0
    4.9586   -8.3618   -8.5993 H   0  0  0  0  0  0  0  0  0  0  0  0
    6.0526   -9.4557  -10.5136 H   0  0  0  0  0  0  0  0  0  0  0  0
    5.1336  -13.2818   -8.8592 H   0  0  0  0  0  0  0  0  0  0  0  0
  1  2  1  0  0  0  0
  1 25  1  0  0  0  0
  1 26  1  0  0  0  0
  1 27  1  0  0  0  0
  2  3  1  0  0  0  0
  2 28  1  0  0  0  0
  2 29  1  0  0  0  0
  3  4  1  0  0  0  0
  3 30  1  0  0  0  0
  3 31  1  0  0  0  0
  4  5  1  0  0  0  0
  4 32  1  0  0  0  0
  4 33  1  0  0  0  0
  5  6  1  0  0  0  0
  5 34  1  0  0  0  0
  5 35  1  0  0  0  0
  6  7  1  0  0  0  0
  6 36  1  0  0  0  0
  6 37  1  0  0  0  0
  7  8  1  0  0  0  0
  7 38  1  0  0  0  0
  8  9  1  0  0  0  0
  8 10  2  0  0  0  0
 10 11  1  0  0  0  0
 10 13  1  0  0  0  0
 11 12  3  0  0  0  0
 13 14  2  0  0  0  0
 13 15  1  0  0  0  0
 15 16  1  0  0  0  0
 15 39  1  0  0  0  0
 15 40  1  0  0  0  0
 16 17  1  0  0  0  0
 17 22  2  0  0  0  0
 17 18  1  0  0  0  0
 18 19  2  0  0  0  0
 18 41  1  0  0  0  0
 19 20  1  0  0  0  0
 19 42  1  0  0  0  0
 20 21  2  0  0  0  0
 20 24  1  0  0  0  0
 21 22  1  0  0  0  0
 21 43  1  0  0  0  0
 22 23  1  0  0  0  0
M  CHG  1   9  -1
M  END
$$$$
ZINC57477210
 OpenBabel01252620473D

 49 50  0  0  1  0  0  0  0  0999 V2000
   -0.0331    1.6176   -0.5611 C   0  0  0  0  0  0  0  0  0  0  0  0
    0.0138    0.0913   -0.4661 C   0  0  0  0  0  0  0  0  0  0  0  0
   -1.6769   -0.5628   -0.4006 S   0  0  0  0  0  0  0  0  0  0  0  0
   -2.2982   -0.1918    0.8224 O   0  0  0  0  0  0  0  0  0  0  0  0
   -2.3339   -0.3462   -1.6418 O   0  0  0  0  0  0  0  0  0  0  0  0
   -1.4940   -2.2056   -0.3002 N   0  0  0  0  0  2  0  0  0  0  0  0
   -2.6190   -3.0306   -0.2322 C   0  0  0  0  0  0  0  0  0  0  0  0
   -3.8922   -2.4750   -0.2544 C   0  0  0  0  0  0  0  0  0  0  0  0
   -5.0022   -3.2936   -0.1875 C   0  0  0  0  0  0  0  0  0  0  0  0
   -4.8477   -4.6651   -0.0980 C   0  0  0  0  0  0  0  0  0  0  0  0
   -3.5820   -5.2213   -0.0752 C   0  0  0  0  0  0  0  0  0  0  0  0
   -2.4674   -4.4087   -0.1480 C   0  0  0  0  0  0  0  0  0  0  0  0
   -3.4185   -6.7161    0.0234 C   0  0  0  0  0  0  0  0  0  0  0  0
   -6.2668   -5.7059   -0.0122 S   0  0  0  0  0  0  0  0  0  0  0  0
   -6.0165   -6.6497    1.0201 O   0  0  0  0  0  0  0  0  0  0  0  0
   -7.3996   -4.8480   -0.0018 O   0  0  0  0  0  0  0  0  0  0  0  0
   -6.3335   -6.5606   -1.4290 N   0  0  0  0  0  0  0  0  0  0  0  0
   -6.9455   -5.9740   -2.6290 C   0  0  0  0  0  0  0  0  0  0  0  0
   -5.9434   -6.0579   -3.7847 C   0  0  1  0  0  0  0  0  0  0  0  0
   -5.0802   -5.4301   -3.5641 H   0  0  0  0  0  0  0  0  0  0  0  0
   -5.4891   -7.5092   -3.9563 C   0  0  0  0  0  0  0  0  0  0  0  0
   -4.7929   -7.9821   -2.6781 C   0  0  1  0  0  0  0  0  0  0  0  0
   -3.9405   -7.3362   -2.4678 H   0  0  0  0  0  0  0  0  0  0  0  0
   -5.7765   -7.9177   -1.5115 C   0  0  0  0  0  0  0  0  0  0  0  0
   -4.3093   -9.4219   -2.8627 C   0  0  0  0  0  0  0  0  0  0  0  0
   -6.6098   -5.5749   -5.0745 C   0  0  0  0  0  0  0  0  0  0  0  0
    0.9828    2.0107   -0.6004 H   0  0  0  0  0  0  0  0  0  0  0  0
   -0.5707    1.9091   -1.4634 H   0  0  0  0  0  0  0  0  0  0  0  0
   -0.5450    2.0205    0.3129 H   0  0  0  0  0  0  0  0  0  0  0  0
    0.5257   -0.3115   -1.3401 H   0  0  0  0  0  0  0  0  0  0  0  0
    0.5514   -0.2002    0.4362 H   0  0  0  0  0  0  0  0  0  0  0  0
   -4.0136   -1.4041   -0.3236 H   0  0  0  0  0  0  0  0  0  0  0  0
   -5.9922   -2.8624   -0.2047 H   0  0  0  0  0  0  0  0  0  0  0  0
   -1.4792   -4.8441   -0.1350 H   0  0  0  0  0  0  0  0  0  0  0  0
   -3.3138   -7.1369   -0.9766 H   0  0  0  0  0  0  0  0  0  0  0  0
   -2.5288   -6.9464    0.6095 H   0  0  0  0  0  0  0  0  0  0  0  0
   -4.2946   -7.1462    0.5087 H   0  0  0  0  0  0  0  0  0  0  0  0
   -7.8480   -6.5281   -2.8870 H   0  0  0  0  0  0  0  0  0  0  0  0
   -7.1967   -4.9307   -2.4383 H   0  0  0  0  0  0  0  0  0  0  0  0
   -6.3559   -8.1403   -4.1525 H   0  0  0  0  0  0  0  0  0  0  0  0
   -4.7947   -7.5758   -4.7939 H   0  0  0  0  0  0  0  0  0  0  0  0
   -5.2566   -8.1563   -0.5836 H   0  0  0  0  0  0  0  0  0  0  0  0
   -6.5815   -8.6337   -1.6763 H   0  0  0  0  0  0  0  0  0  0  0  0
   -3.6077   -9.4655   -3.6957 H   0  0  0  0  0  0  0  0  0  0  0  0
   -3.8136   -9.7582   -1.9521 H   0  0  0  0  0  0  0  0  0  0  0  0
   -5.1622  -10.0676   -3.0718 H   0  0  0  0  0  0  0  0  0  0  0  0
   -6.9354   -4.5421   -4.9505 H   0  0  0  0  0  0  0  0  0  0  0  0
   -5.8965   -5.6348   -5.8965 H   0  0  0  0  0  0  0  0  0  0  0  0
   -7.4723   -6.2037   -5.2954 H   0  0  0  0  0  0  0  0  0  0  0  0
  1  2  1  0  0  0  0
  1 27  1  0  0  0  0
  1 28  1  0  0  0  0
  1 29  1  0  0  0  0
  2  3  1  0  0  0  0
  2 30  1  0  0  0  0
  2 31  1  0  0  0  0
  3  4  2  0  0  0  0
  3  5  2  0  0  0  0
  3  6  1  0  0  0  0
  6  7  1  0  0  0  0
  7 12  2  0  0  0  0
  7  8  1  0  0  0  0
  8  9  2  0  0  0  0
  8 32  1  0  0  0  0
  9 10  1  0  0  0  0
  9 33  1  0  0  0  0
 10 11  2  0  0  0  0
 10 14  1  0  0  0  0
 11 12  1  0  0  0  0
 11 13  1  0  0  0  0
 12 34  1  0  0  0  0
 13 35  1  0  0  0  0
 13 36  1  0  0  0  0
 13 37  1  0  0  0  0
 14 15  2  0  0  0  0
 14 16  2  0  0  0  0
 14 17  1  0  0  0  0
 17 24  1  0  0  0  0
 17 18  1  0  0  0  0
 18 19  1  0  0  0  0
 18 38  1  0  0  0  0
 18 39  1  0  0  0  0
 19 20  1  1  0  0  0
 19 21  1  0  0  0  0
 19 26  1  0  0  0  0
 21 22  1  0  0  0  0
 21 40  1  0  0  0  0
 21 41  1  0  0  0  0
 22 23  1  1  0  0  0
 22 24  1  0  0  0  0
 22 25  1  0  0  0  0
 24 42  1  0  0  0  0
 24 43  1  0  0  0  0
 25 44  1  0  0  0  0
 25 45  1  0  0  0  0
 25 46  1  0  0  0  0
 26 47  1  0  0  0  0
 26 48  1  0  0  0  0
 26 49  1  0  0  0  0
M  END
$$$$
ZINC67043814
 OpenBabel01252620473D

 49 50  0  0  0  0  0  0  0  0999 V2000
   -0.8232    1.8856    0.1359 C   0  0  0  0  0  0  0  0  0  0  0  0
   -0.6866    0.4201   -0.1875 C   0  0  0  0  0  0  0  0  0  0  0  0
    0.1659    0.0477   -0.9658 O   0  0  0  0  0  0  0  0  0  0  0  0
   -1.5117   -0.4768    0.3881 N   0  0  0  0  0  0  0  0  0  0  0  0
   -1.4544   -1.8254    0.0100 C   0  0  0  0  0  0  0  0  0  0  0  0
   -0.2332   -2.3988   -0.3311 C   0  0  0  0  0  0  0  0  0  0  0  0
   -0.1659   -3.7246   -0.7044 C   0  0  0  0  0  0  0  0  0  0  0  0
   -1.3193   -4.4982   -0.7421 C   0  0  0  0  0  0  0  0  0  0  0  0
   -2.5537   -3.9264   -0.3989 C   0  0  0  0  0  0  0  0  0  0  0  0
   -2.6112   -2.5835   -0.0173 C   0  0  0  0  0  0  0  0  0  0  0  0
   -3.7831   -4.7395   -0.4360 C   0  0  0  0  0  0  0  0  0  0  0  0
   -3.9842   -5.4955   -1.3670 O   0  0  0  0  0  0  0  0  0  0  0  0
   -4.6839   -4.6450    0.5621 N   0  0  0  0  0  0  0  0  0  0  0  0
   -4.3916   -3.8202    1.7369 C   0  0  0  0  0  0  0  0  0  0  0  0
   -5.9553   -5.3672    0.4720 C   0  0  0  0  0  0  0  0  0  0  0  0
   -5.7971   -6.7575    1.0908 C   0  0  0  0  0  0  0  0  0  0  0  0
   -7.1051   -7.5004    0.9982 C   0  0  0  0  0  0  0  0  0  0  0  0
   -8.0313   -7.3989    2.0193 C   0  0  0  0  0  0  0  0  0  0  0  0
   -9.2311   -8.0803    1.9343 C   0  0  0  0  0  0  0  0  0  0  0  0
   -9.5047   -8.8628    0.8281 C   0  0  0  0  0  0  0  0  0  0  0  0
   -8.5788   -8.9635   -0.1934 C   0  0  0  0  0  0  0  0  0  0  0  0
   -7.3809   -8.2787   -0.1104 C   0  0  0  0  0  0  0  0  0  0  0  0
   -1.2506   -5.8350   -1.1191 N   0  0  0  0  0  2  0  0  0  0  0  0
    0.2076   -6.5071   -1.5242 S   0  0  0  0  0  0  0  0  0  0  0  0
    0.6207   -5.8032   -2.6874 O   0  0  0  0  0  0  0  0  0  0  0  0
    0.9773   -6.4496   -0.3311 O   0  0  0  0  0  0  0  0  0  0  0  0
   -0.1731   -8.2314   -1.9395 C   0  0  0  0  0  0  0  0  0  0  0  0
   -0.0760    2.4516   -0.4202 H   0  0  0  0  0  0  0  0  0  0  0  0
   -1.8199    2.2278   -0.1428 H   0  0  0  0  0  0  0  0  0  0  0  0
   -0.6727    2.0374    1.2048 H   0  0  0  0  0  0  0  0  0  0  0  0
   -2.1452   -0.1891    1.0640 H   0  0  0  0  0  0  0  0  0  0  0  0
    0.6666   -1.8022   -0.3036 H   0  0  0  0  0  0  0  0  0  0  0  0
    0.7854   -4.1624   -0.9685 H   0  0  0  0  0  0  0  0  0  0  0  0
   -3.5571   -2.1375    0.2521 H   0  0  0  0  0  0  0  0  0  0  0  0
   -4.7276   -2.7990    1.5567 H   0  0  0  0  0  0  0  0  0  0  0  0
   -4.9120   -4.2261    2.6044 H   0  0  0  0  0  0  0  0  0  0  0  0
   -3.3177   -3.8217    1.9239 H   0  0  0  0  0  0  0  0  0  0  0  0
   -6.7256   -4.8152    1.0107 H   0  0  0  0  0  0  0  0  0  0  0  0
   -6.2438   -5.4659   -0.5745 H   0  0  0  0  0  0  0  0  0  0  0  0
   -5.0269   -7.3094    0.5522 H   0  0  0  0  0  0  0  0  0  0  0  0
   -5.5087   -6.6587    2.1373 H   0  0  0  0  0  0  0  0  0  0  0  0
   -7.8176   -6.7876    2.8836 H   0  0  0  0  0  0  0  0  0  0  0  0
   -9.9545   -8.0016    2.7324 H   0  0  0  0  0  0  0  0  0  0  0  0
  -10.4417   -9.3957    0.7621 H   0  0  0  0  0  0  0  0  0  0  0  0
   -8.7924   -9.5751   -1.0575 H   0  0  0  0  0  0  0  0  0  0  0  0
   -6.6590   -8.3544   -0.9102 H   0  0  0  0  0  0  0  0  0  0  0  0
   -0.8748   -8.2579   -2.7732 H   0  0  0  0  0  0  0  0  0  0  0  0
    0.7444   -8.7486   -2.2202 H   0  0  0  0  0  0  0  0  0  0  0  0
   -0.6177   -8.7238   -1.0747 H   0  0  0  0  0  0  0  0  0  0  0  0
  1  2  1  0  0  0  0
  1 28  1  0  0  0  0
  1 29  1  0  0  0  0
  1 30  1  0  0  0  0
  2  3  2  0  0  0  0
  2  4  1  0  0  0  0
  4  5  1  0  0  0  0
  4 31  1  0  0  0  0
  5 10  2  0  0  0  0
  5  6  1  0  0  0  0
  6  7  2  0  0  0  0
  6 32  1  0  0  0  0
  7  8  1  0  0  0  0
  7 33  1  0  0  0  0
  8  9  2  0  0  0  0
  8 23  1  0  0  0  0
  9 10  1  0  0  0  0
  9 11  1  0  0  0  0
 10 34  1  0  0  0  0
 11 12  2  0  0  0  0
 11 13  1  0  0  0  0
 13 14  1  0  0  0  0
 13 15  1  0  0  0  0
 14 35  1  0  0  0  0
 14 36  1  0  0  0  0
 14 37  1  0  0  0  0
 15 16  1  0  0  0  0
 15 38  1  0  0  0  0
 15 39  1  0  0  0  0
 16 17  1  0  0  0  0
 16 40  1  0  0  0  0
 16 41  1  0  0  0  0
 17 22  2  0  0  0  0
 17 18  1  0  0  0  0
 18 19  2  0  0  0  0
 18 42  1  0  0  0  0
 19 20  1  0  0  0  0
 19 43  1  0  0  0  0
 20 21  2  0  0  0  0
 20 44  1  0  0  0  0
 21 22  1  0  0  0  0
 21 45  1  0  0  0  0
 22 46  1  0  0  0  0
 23 24  1  0  0  0  0
 24 25  2  0  0  0  0
 24 26  2  0  0  0  0
 24 27  1  0  0  0  0
 27 47  1  0  0  0  0
 27 48  1  0  0  0  0
 27 49  1  0  0  0  0
M  END
$$$$
ZINC13251885
 OpenBabel01252620473D

 46 48  0  0  1  0  0  0  0  0999 V2000
    1.0445   -1.7536   -5.0139 C   0  0  0  0  0  0  0  0  0  0  0  0
    1.2409   -3.0828   -5.3412 C   0  0  0  0  0  0  0  0  0  0  0  0
    1.7605   -3.4247   -6.5761 C   0  0  0  0  0  0  0  0  0  0  0  0
    2.0800   -2.4382   -7.4899 C   0  0  0  0  0  0  0  0  0  0  0  0
    1.8887   -1.1013   -7.1617 C   0  0  0  0  0  0  0  0  0  0  0  0
    1.3665   -0.7623   -5.9202 C   0  0  0  0  0  0  0  0  0  0  0  0
    2.2155   -0.1006   -8.0809 N   0  0  0  0  0  2  0  0  0  0  0  0
    2.7121    1.3856   -7.5453 S   0  0  0  0  0  0  0  0  0  0  0  0
    2.9958    2.1603   -8.7023 O   0  0  0  0  0  0  0  0  0  0  0  0
    3.6786    1.1495   -6.5307 O   0  0  0  0  0  0  0  0  0  0  0  0
    1.3303    2.1439   -6.7578 C   0  0  0  0  0  0  0  0  0  0  0  0
    1.3818    2.4413   -5.4098 C   0  0  0  0  0  0  0  0  0  0  0  0
    0.2924    3.0384   -4.7898 C   0  0  0  0  0  0  0  0  0  0  0  0
   -0.8485    3.3305   -5.5260 C   0  0  0  0  0  0  0  0  0  0  0  0
   -0.8927    3.0364   -6.8745 C   0  0  0  0  0  0  0  0  0  0  0  0
    0.1945    2.4407   -7.4900 C   0  0  0  0  0  0  0  0  0  0  0  0
    0.1330    2.0657   -9.1839 Cl  0  0  0  0  0  0  0  0  0  0  0  0
    0.3418    3.3403   -3.4239 N   0  0  0  0  0  0  0  0  0  0  0  0
    1.5102    3.6962   -2.8542 C   0  0  0  0  0  0  0  0  0  0  0  0
    2.4990    3.8454   -3.5407 O   0  0  0  0  0  0  0  0  0  0  0  0
    1.5882    3.9089   -1.3643 C   0  0  2  0  0  0  0  0  0  0  0  0
    0.5748    4.1308   -0.9986 H   0  0  0  0  0  0  0  0  0  0  0  0
    2.5331    5.0733   -1.0597 C   0  0  0  0  0  0  0  0  0  0  0  0
    3.9507    4.6795   -1.3555 C   0  0  0  0  0  0  0  0  0  0  0  0
    4.3488    3.4562   -1.4983 C   0  0  0  0  0  0  0  0  0  0  0  0
    3.4488    2.2606   -1.3870 C   0  0  0  0  0  0  0  0  0  0  0  0
    2.1414    2.6463   -0.6915 C   0  0  2  0  0  0  0  0  0  0  0  0
    2.3158    2.8215    0.3804 H   0  0  0  0  0  0  0  0  0  0  0  0
    1.1435    1.5245   -0.8212 C   0  0  0  0  0  0  0  0  0  0  0  0
    0.0954    1.7113   -1.3926 O   0  0  0  0  0  0  0  0  0  0  0  0
    1.4190    0.3178   -0.3019 O   0  0  0  0  0  1  0  0  0  0  0  0
    2.7251   -2.8681   -9.0432 Cl  0  0  0  0  0  0  0  0  0  0  0  0
    0.6385   -1.4903   -4.0484 H   0  0  0  0  0  0  0  0  0  0  0  0
    0.9881   -3.8556   -4.6304 H   0  0  0  0  0  0  0  0  0  0  0  0
    1.9129   -4.4637   -6.8284 H   0  0  0  0  0  0  0  0  0  0  0  0
    1.2128    0.2754   -5.6635 H   0  0  0  0  0  0  0  0  0  0  0  0
    2.2687    2.2098   -4.8388 H   0  0  0  0  0  0  0  0  0  0  0  0
   -1.6989    3.7909   -5.0451 H   0  0  0  0  0  0  0  0  0  0  0  0
   -1.7780    3.2673   -7.4483 H   0  0  0  0  0  0  0  0  0  0  0  0
   -0.5730    3.2871   -2.8154 H   0  0  0  0  0  0  0  0  0  0  0  0
    2.2617    5.9383   -1.6827 H   0  0  0  0  0  0  0  0  0  0  0  0
    2.4488    5.3457    0.0027 H   0  0  0  0  0  0  0  0  0  0  0  0
    4.6697    5.5065   -1.4504 H   0  0  0  0  0  0  0  0  0  0  0  0
    5.4060    3.2436   -1.7154 H   0  0  0  0  0  0  0  0  0  0  0  0
    3.2221    1.8774   -2.3929 H   0  0  0  0  0  0  0  0  0  0  0  0
    3.9509    1.4769   -0.8007 H   0  0  0  0  0  0  0  0  0  0  0  0
  1  6  2  0  0  0  0
  1  2  1  0  0  0  0
  1 33  1  0  0  0  0
  2  3  2  0  0  0  0
  2 34  1  0  0  0  0
  3  4  1  0  0  0  0
  3 35  1  0  0  0  0
  4  5  2  0  0  0  0
  4 32  1  0  0  0  0
  5  6  1  0  0  0  0
  5  7  1  0  0  0  0
  6 36  1  0  0  0  0
  7  8  1  0  0  0  0
  8  9  2  0  0  0  0
  8 10  2  0  0  0  0
  8 11  1  0  0  0  0
 11 16  2  0  0  0  0
 11 12  1  0  0  0  0
 12 13  2  0  0  0  0
 12 37  1  0  0  0  0
 13 14  1  0  0  0  0
 13 18  1  0  0  0  0
 14 15  2  0  0  0  0
 14 38  1  0  0  0  0
 15 16  1  0  0  0  0
 15 39  1  0  0  0  0
 16 17  1  0  0  0  0
 18 19  1  0  0  0  0
 18 40  1  0  0  0  0
 19 20  2  0  0  0  0
 19 21  1  0  0  0  0
 21 22  1  1  0  0  0
 21 27  1  0  0  0  0
 21 23  1  0  0  0  0
 23 24  1  0  0  0  0
 23 41  1  0  0  0  0
 23 42  1  0  0  0  0
 24 25  2  0  0  0  0
 24 43  1  0  0  0  0
 25 26  1  0  0  0  0
 25 44  1  0  0  0  0
 26 27  1  0  0  0  0
 26 45  1  0  0  0  0
 26 46  1  0  0  0  0
 27 28  1  1  0  0  0
 27 29  1  0  0  0  0
 29 30  2  0  0  0  0
 29 31  1  0  0  0  0
M  END
$$$$
ZINC39134369
 OpenBabel01252620473D

 44 46  0  0  0  0  0  0  0  0999 V2000
   -0.0184    1.5028    0.0103 C   0  0  0  0  0  0  0  0  0  0  0  0
    0.0021   -0.0041    0.0020 C   0  0  0  0  0  0  0  0  0  0  0  0
    0.0058   -0.6886   -1.1978 C   0  0  0  0  0  0  0  0  0  0  0  0
    0.0246   -2.0722   -1.2059 C   0  0  0  0  0  0  0  0  0  0  0  0
    0.0401   -2.7729   -0.0128 C   0  0  0  0  0  0  0  0  0  0  0  0
    0.0369   -2.0921    1.1891 C   0  0  0  0  0  0  0  0  0  0  0  0
    0.0230   -0.7047    1.1995 C   0  0  0  0  0  0  0  0  0  0  0  0
    0.0250   -0.0329    2.3809 O   0  0  0  0  0  0  0  0  0  0  0  0
   -1.1733    0.2660    2.9466 C   0  0  0  0  0  0  0  0  0  0  0  0
   -2.3548   -0.1246    2.3110 C   0  0  0  0  0  0  0  0  0  0  0  0
   -3.5714    0.1612    2.8556 C   0  0  0  0  0  0  0  0  0  0  0  0
   -3.6436    0.8549    4.0674 C   0  0  0  0  0  0  0  0  0  0  0  0
   -2.4500    1.2552    4.7196 C   0  0  0  0  0  0  0  0  0  0  0  0
   -1.2113    0.9468    4.1455 C   0  0  0  0  0  0  0  0  0  0  0  0
   -2.5577    1.9538    5.9424 C   0  0  0  0  0  0  0  0  0  0  0  0
   -3.8246    2.2225    6.4600 C   0  0  0  0  0  0  0  0  0  0  0  0
   -4.9374    1.8417    5.8386 N   0  0  0  0  0  0  0  0  0  0  0  0
   -4.9233    1.1855    4.6934 C   0  0  0  0  0  0  0  0  0  0  0  0
   -6.1526    0.7995    4.0685 C   0  0  0  0  0  0  0  0  0  0  0  0
   -7.1278    0.4933    3.5727 N   0  0  0  0  0  0  0  0  0  0  0  0
   -3.9340    2.9522    7.7381 C   0  0  0  0  0  0  0  0  0  0  0  0
   -2.9292    3.3090    8.3224 O   0  0  0  0  0  0  0  0  0  0  0  0
   -5.1478    3.2232    8.2575 N   0  0  0  0  0  0  0  0  0  0  0  0
   -5.2565    3.9476    9.5263 C   0  0  0  0  0  0  0  0  0  0  0  0
   -6.7104    4.1202    9.8832 C   0  0  0  0  0  0  0  0  0  0  0  0
   -7.5756    3.6790    9.1462 O   0  0  0  0  0  0  0  0  0  0  0  0
   -7.0214    4.7010   10.9091 O   0  0  0  0  0  1  0  0  0  0  0  0
   -1.4472    2.3564    6.6028 O   0  5  0  0  0  0  0  0  0  0  0  0
    0.0538   -2.8556    2.4882 C   0  0  0  0  0  0  0  0  0  0  0  0
    0.0281   -2.9302   -2.7151 Cl  0  0  0  0  0  0  0  0  0  0  0  0
    1.0042    1.8801    0.0026 H   0  0  0  0  0  0  0  0  0  0  0  0
   -0.5455    1.8639   -0.8728 H   0  0  0  0  0  0  0  0  0  0  0  0
   -0.5286    1.8543    0.9071 H   0  0  0  0  0  0  0  0  0  0  0  0
   -0.0063   -0.1436   -2.1301 H   0  0  0  0  0  0  0  0  0  0  0  0
    0.0544   -3.8527   -0.0213 H   0  0  0  0  0  0  0  0  0  0  0  0
   -2.3034   -0.6603    1.3746 H   0  0  0  0  0  0  0  0  0  0  0  0
   -4.4761   -0.1467    2.3526 H   0  0  0  0  0  0  0  0  0  0  0  0
   -0.2948    1.2425    4.6342 H   0  0  0  0  0  0  0  0  0  0  0  0
   -5.9494    2.9386    7.7913 H   0  0  0  0  0  0  0  0  0  0  0  0
   -4.7542    3.3825   10.3114 H   0  0  0  0  0  0  0  0  0  0  0  0
   -4.7880    4.9267    9.4269 H   0  0  0  0  0  0  0  0  0  0  0  0
    1.0855   -3.0258    2.7963 H   0  0  0  0  0  0  0  0  0  0  0  0
   -0.4640   -2.2795    3.2551 H   0  0  0  0  0  0  0  0  0  0  0  0
   -0.4477   -3.8139    2.3530 H   0  0  0  0  0  0  0  0  0  0  0  0
  1  2  1  0  0  0  0
  1 31  1  0  0  0  0
  1 32  1  0  0  0  0
  1 33  1  0  0  0  0
  2  7  2  0  0  0  0
  2  3  1  0  0  0  0
  3  4  2  0  0  0  0
  3 34  1  0  0  0  0
  4  5  1  0  0  0  0
  4 30  1  0  0  0  0
  5  6  2  0  0  0  0
  5 35  1  0  0  0  0
  6  7  1  0  0  0  0
  6 29  1  0  0  0  0
  7  8  1  0  0  0  0
  8  9  1  0  0  0  0
  9 14  2  0  0  0  0
  9 10  1  0  0  0  0
 10 11  2  0  0  0  0
 10 36  1  0  0  0  0
 11 12  1  0  0  0  0
 11 37  1  0  0  0  0
 12 18  2  0  0  0  0
 12 13  1  0  0  0  0
 13 14  1  0  0  0  0
 13 15  2  0  0  0  0
 14 38  1  0  0  0  0
 15 16  1  0  0  0  0
 15 28  1  0  0  0  0
 16 17  2  0  0  0  0
 16 21  1  0  0  0  0
 17 18  1  0  0  0  0
 18 19  1  0  0  0  0
 19 20  3  0  0  0  0
 21 22  2  0  0  0  0
 21 23  1  0  0  0  0
 23 24  1  0  0  0  0
 23 39  1  0  0  0  0
 24 25  1  0  0  0  0
 24 40  1  0  0  0  0
 24 41  1  0  0  0  0
 25 26  2  0  0  0  0
 25 27  1  0  0  0  0
 29 42  1  0  0  0  0
 29 43  1  0  0  0  0
 29 44  1  0  0  0  0
M  CHG  1  28  -1
M  END
$$$$
ZINC01262821
 OpenBabel01252620473D

 41 43  0  0  0  0  0  0  0  0999 V2000
   -2.6020    3.2415    4.5314 C   0  0  0  0  0  0  0  0  0  0  0  0
   -2.5193    2.6228    3.2460 O   0  0  0  0  0  0  0  0  0  0  0  0
   -3.4946    2.9296    2.3493 C   0  0  0  0  0  0  0  0  0  0  0  0
   -4.5003    3.8067    2.6980 C   0  0  0  0  0  0  0  0  0  0  0  0
   -5.5081    4.1161    1.7719 C   0  0  0  0  0  0  0  0  0  0  0  0
   -5.4827    3.5351    0.4949 C   0  0  0  0  0  0  0  0  0  0  0  0
   -4.4718    2.6656    0.1559 C   0  0  0  0  0  0  0  0  0  0  0  0
   -3.4745    2.3604    1.0749 C   0  0  0  0  0  0  0  0  0  0  0  0
   -2.4807    1.5014    0.7337 O   0  0  0  0  0  0  0  0  0  0  0  0
   -2.5234    0.9503   -0.5840 C   0  0  0  0  0  0  0  0  0  0  0  0
   -1.3491    0.0265   -0.7805 C   0  0  0  0  0  0  0  0  0  0  0  0
   -1.4647   -1.3148   -0.4656 C   0  0  0  0  0  0  0  0  0  0  0  0
   -0.3902   -2.1644   -0.6507 C   0  0  0  0  0  0  0  0  0  0  0  0
    0.8012   -1.6738   -1.1510 C   0  0  0  0  0  0  0  0  0  0  0  0
    0.9182   -0.3310   -1.4667 C   0  0  0  0  0  0  0  0  0  0  0  0
   -0.1590    0.5192   -1.2808 C   0  0  0  0  0  0  0  0  0  0  0  0
    2.0821    0.1496   -1.9562 F   0  0  0  0  0  0  0  0  0  0  0  0
   -6.5808    5.0415    2.1361 C   0  0  0  0  0  0  0  0  0  0  0  0
   -6.9576    6.0412    1.2603 C   0  0  0  0  0  0  0  0  0  0  0  0
   -6.1605    6.3535    0.0573 C   0  0  0  0  0  0  0  0  0  0  0  0
   -5.1443    5.7351   -0.1970 O   0  5  0  0  0  0  0  0  0  0  0  0
   -6.5931    7.3401   -0.7547 N   0  0  0  0  0  0  0  0  0  0  0  0
   -7.7077    8.0332   -0.4836 C   0  0  0  0  0  0  0  0  0  0  0  0
   -8.1741    9.2729   -1.5683 S   0  0  0  0  0  0  0  0  0  0  0  0
   -8.4768    7.8087    0.5908 N   0  0  0  0  0  0  0  0  0  0  0  0
   -8.1721    6.8493    1.4889 C   0  0  0  0  0  0  0  0  0  0  0  0
   -8.8785    6.6550    2.4599 O   0  0  0  0  0  0  0  0  0  0  0  0
   -1.7579    2.9089    5.1534 H   0  0  0  0  0  0  0  0  0  0  0  0
   -3.5482    2.9572    5.0150 H   0  0  0  0  0  0  0  0  0  0  0  0
   -2.5635    4.3347    4.4153 H   0  0  0  0  0  0  0  0  0  0  0  0
   -4.5145    4.2508    3.6824 H   0  0  0  0  0  0  0  0  0  0  0  0
   -6.2559    3.7705   -0.2214 H   0  0  0  0  0  0  0  0  0  0  0  0
   -4.4533    2.2185   -0.8270 H   0  0  0  0  0  0  0  0  0  0  0  0
   -3.4590    0.3871   -0.7157 H   0  0  0  0  0  0  0  0  0  0  0  0
   -2.4778    1.7636   -1.3233 H   0  0  0  0  0  0  0  0  0  0  0  0
   -2.3953   -1.6991   -0.0750 H   0  0  0  0  0  0  0  0  0  0  0  0
   -0.4817   -3.2120   -0.4047 H   0  0  0  0  0  0  0  0  0  0  0  0
    1.6406   -2.3379   -1.2959 H   0  0  0  0  0  0  0  0  0  0  0  0
   -0.0688    1.5671   -1.5263 H   0  0  0  0  0  0  0  0  0  0  0  0
   -7.0874    4.9414    3.1073 H   0  0  0  0  0  0  0  0  0  0  0  0
   -9.3805    8.4136    0.7564 H   0  0  0  0  0  0  0  0  0  0  0  0
  1  2  1  0  0  0  0
  1 28  1  0  0  0  0
  1 29  1  0  0  0  0
  1 30  1  0  0  0  0
  2  3  1  0  0  0  0
  3  8  2  0  0  0  0
  3  4  1  0  0  0  0
  4  5  2  0  0  0  0
  4 31  1  0  0  0  0
  5  6  1  0  0  0  0
  5 18  1  0  0  0  0
  6  7  2  0  0  0  0
  6 32  1  0  0  0  0
  7  8  1  0  0  0  0
  7 33  1  0  0  0  0
  8  9  1  0  0  0  0
  9 10  1  0  0  0  0
 10 11  1  0  0  0  0
 10 34  1  0  0  0  0
 10 35  1  0  0  0  0
 11 16  2  0  0  0  0
 11 12  1  0  0  0  0
 12 13  2  0  0  0  0
 12 36  1  0  0  0  0
 13 14  1  0  0  0  0
 13 37  1  0  0  0  0
 14 15  2  0  0  0  0
 14 38  1  0  0  0  0
 15 16  1  0  0  0  0
 15 17  1  0  0  0  0
 16 39  1  0  0  0  0
 18 19  2  0  0  0  0
 18 40  1  0  0  0  0
 19 26  1  0  0  0  0
 19 20  1  0  0  0  0
 20 21  1  0  0  0  0
 20 22  2  0  0  0  0
 22 23  1  0  0  0  0
 23 24  2  0  0  0  0
 23 25  1  0  0  0  0
 25 26  1  0  0  0  0
 25 41  1  0  0  0  0
 26 27  2  0  0  0  0
M  CHG  1  21  -1
M  END
$$$$
ZINC33281478
 OpenBabel01252620473D

 57 60  0  0  0  0  0  0  0  0999 V2000
   -1.1076   -3.1606   -5.9725 C   0  0  0  0  0  0  0  0  0  0  0  0
   -0.7397   -2.9213   -4.5308 C   0  0  0  0  0  0  0  0  0  0  0  0
    0.4045   -3.4897   -3.9862 C   0  0  0  0  0  0  0  0  0  0  0  0
    0.7133   -3.2515   -2.6622 C   0  0  0  0  0  0  0  0  0  0  0  0
   -0.0632   -2.4926   -1.9120 N   0  0  0  0  0  0  0  0  0  0  0  0
   -1.1620   -1.9331   -2.3942 C   0  0  0  0  0  0  0  0  0  0  0  0
   -1.5372   -2.1357   -3.7186 C   0  0  0  0  0  0  0  0  0  0  0  0
   -1.9510   -1.1408   -1.5683 N   0  0  0  0  0  2  0  0  0  0  0  0
   -1.5149   -0.9003    0.0111 S   0  0  0  0  0  0  0  0  0  0  0  0
   -1.2262   -2.1820    0.5524 O   0  0  0  0  0  0  0  0  0  0  0  0
   -2.4929   -0.0376    0.5755 O   0  0  0  0  0  0  0  0  0  0  0  0
    0.0021   -0.0041    0.0020 C   0  0  0  0  0  0  0  0  0  0  0  0
   -0.0167    1.3823    0.0096 C   0  0  0  0  0  0  0  0  0  0  0  0
    1.1613    2.1022    0.0023 C   0  0  0  0  0  0  0  0  0  0  0  0
    2.3761    1.4341   -0.0129 C   0  0  0  0  0  0  0  0  0  0  0  0
    2.3963    0.0286   -0.0206 C   0  0  0  0  0  0  0  0  0  0  0  0
    1.2007   -0.6859   -0.0131 C   0  0  0  0  0  0  0  0  0  0  0  0
    3.7046   -0.6500   -0.0372 C   0  0  0  0  0  0  0  0  0  0  0  0
    3.7777   -1.8637   -0.0445 O   0  0  0  0  0  0  0  0  0  0  0  0
    4.8203    0.1113   -0.0438 N   0  0  0  0  0  0  0  0  0  0  0  0
    4.7492    1.4516   -0.0363 C   0  0  0  0  0  0  0  0  0  0  0  0
    5.7843    2.0892   -0.0432 O   0  0  0  0  0  0  0  0  0  0  0  0
    3.5825    2.1191   -0.0212 N   0  0  0  0  0  0  0  0  0  0  0  0
    3.5850    3.5841   -0.0138 C   0  0  0  0  0  0  0  0  0  0  0  0
    6.1333   -0.5383   -0.0593 C   0  0  0  0  0  0  0  0  0  0  0  0
    6.6039   -0.7718    1.3777 C   0  0  0  0  0  0  0  0  0  0  0  0
    7.9545   -1.4401    1.3617 C   0  0  0  0  0  0  0  0  0  0  0  0
    8.4882   -1.7037    0.3050 O   0  0  0  0  0  0  0  0  0  0  0  0
    8.5693   -1.7449    2.5217 N   0  0  0  0  0  0  0  0  0  0  0  0
    8.0414   -1.4771    3.8674 C   0  0  0  0  0  0  0  0  0  0  0  0
    9.0945   -1.9737    4.8801 C   0  0  0  0  0  0  0  0  0  0  0  0
   10.4036   -1.9692    4.0472 C   0  0  0  0  0  0  0  0  0  0  0  0
    9.8856   -2.3962    2.6512 C   0  0  0  0  0  0  0  0  0  0  0  0
   -0.3507   -3.8063   -6.4417 H   0  0  0  0  0  0  0  0  0  0  0  0
   -1.1499   -2.1988   -6.5046 H   0  0  0  0  0  0  0  0  0  0  0  0
   -2.0907   -3.6514   -6.0234 H   0  0  0  0  0  0  0  0  0  0  0  0
    1.0459   -4.1121   -4.5925 H   0  0  0  0  0  0  0  0  0  0  0  0
    1.6021   -3.6915   -2.2347 H   0  0  0  0  0  0  0  0  0  0  0  0
   -2.4365   -1.6821   -4.1083 H   0  0  0  0  0  0  0  0  0  0  0  0
   -0.9622    1.9042    0.0169 H   0  0  0  0  0  0  0  0  0  0  0  0
    1.1367    3.1819    0.0079 H   0  0  0  0  0  0  0  0  0  0  0  0
    1.2122   -1.7659   -0.0193 H   0  0  0  0  0  0  0  0  0  0  0  0
    4.6227    3.9490   -0.0221 H   0  0  0  0  0  0  0  0  0  0  0  0
    3.0759    3.9470    0.8912 H   0  0  0  0  0  0  0  0  0  0  0  0
    3.0583    3.9562   -0.9050 H   0  0  0  0  0  0  0  0  0  0  0  0
    6.0588   -1.5033   -0.5821 H   0  0  0  0  0  0  0  0  0  0  0  0
    6.8554    0.1067   -0.5813 H   0  0  0  0  0  0  0  0  0  0  0  0
    6.6785    0.1932    1.9005 H   0  0  0  0  0  0  0  0  0  0  0  0
    5.8818   -1.4168    1.8998 H   0  0  0  0  0  0  0  0  0  0  0  0
    7.8707   -0.3969    3.9860 H   0  0  0  0  0  0  0  0  0  0  0  0
    7.0917   -2.0154    4.0025 H   0  0  0  0  0  0  0  0  0  0  0  0
    9.1341   -1.2837    5.7359 H   0  0  0  0  0  0  0  0  0  0  0  0
    8.8194   -2.9789    5.2320 H   0  0  0  0  0  0  0  0  0  0  0  0
   10.8416   -0.9602    4.0580 H   0  0  0  0  0  0  0  0  0  0  0  0
   11.1177   -2.6836    4.4827 H   0  0  0  0  0  0  0  0  0  0  0  0
    9.7638   -3.4870    2.5780 H   0  0  0  0  0  0  0  0  0  0  0  0
   10.5486   -2.0465    1.8461 H   0  0  0  0  0  0  0  0  0  0  0  0
  1  2  1  0  0  0  0
  1 34  1  0  0  0  0
  1 35  1  0  0  0  0
  1 36  1  0  0  0  0
  2  7  2  0  0  0  0
  2  3  1  0  0  0  0
  3  4  2  0  0  0  0
  3 37  1  0  0  0  0
  4  5  1  0  0  0  0
  4 38  1  0  0  0  0
  5  6  2  0  0  0  0
  6  7  1  0  0  0  0
  6  8  1  0  0  0  0
  7 39  1  0  0  0  0
  8  9  1  0  0  0  0
  9 10  2  0  0  0  0
  9 11  2  0  0  0  0
  9 12  1  0  0  0  0
 12 17  2  0  0  0  0
 12 13  1  0  0  0  0
 13 14  2  0  0  0  0
 13 40  1  0  0  0  0
 14 15  1  0  0  0  0
 14 41  1  0  0  0  0
 15 23  1  0  0  0  0
 15 16  2  0  0  0  0
 16 17  1  0  0  0  0
 16 18  1  0  0  0  0
 17 42  1  0  0  0  0
 18 19  2  0  0  0  0
 18 20  1  0  0  0  0
 20 21  1  0  0  0  0
 20 25  1  0  0  0  0
 21 22  2  0  0  0  0
 21 23  1  0  0  0  0
 23 24  1  0  0  0  0
 24 43  1  0  0  0  0
 24 44  1  0  0  0  0
 24 45  1  0  0  0  0
 25 26  1  0  0  0  0
 25 46  1  0  0  0  0
 25 47  1  0  0  0  0
 26 27  1  0  0  0  0
 26 48  1  0  0  0  0
 26 49  1  0  0  0  0
 27 28  2  0  0  0  0
 27 29  1  0  0  0  0
 29 33  1  0  0  0  0
 29 30  1  0  0  0  0
 30 31  1  0  0  0  0
 30 50  1  0  0  0  0
 30 51  1  0  0  0  0
 31 32  1  0  0  0  0
 31 52  1  0  0  0  0
 31 53  1  0  0  0  0
 32 33  1  0  0  0  0
 32 54  1  0  0  0  0
 32 55  1  0  0  0  0
 33 56  1  0  0  0  0
 33 57  1  0  0  0  0
M  END
$$$$
ZINC62914149
 OpenBabel01252620473D

 30 31  0  0  1  0  0  0  0  0999 V2000
   -0.0187    1.5258    0.0104 C   0  0  0  0  0  0  0  0  0  0  0  0
    0.0021   -0.0041    0.0020 C   0  0  2  0  0  0  0  0  0  0  0  0
   -1.4347   -0.5733    0.1398 C   0  0  0  0  0  0  0  0  0  0  0  0
   -1.6453   -0.5183    1.6735 C   0  0  0  0  0  0  0  0  0  0  0  0
   -0.3318   -0.8626    2.2474 N   0  0  0  0  0  0  0  0  0  0  0  0
    0.7113   -0.5474    1.2603 C   0  0  0  0  0  0  0  0  0  0  0  0
   -0.1218   -1.3800    3.4741 C   0  0  0  0  0  0  0  0  0  0  0  0
    1.0092   -1.6256    3.8445 O   0  0  0  0  0  0  0  0  0  0  0  0
   -1.2696   -1.6492    4.3708 C   0  0  0  0  0  0  0  0  0  0  0  0
   -1.0452   -2.1788    5.6399 C   0  0  0  0  0  0  0  0  0  0  0  0
   -2.1284   -2.4254    6.4676 C   0  0  0  0  0  0  0  0  0  0  0  0
   -3.4005   -2.1335    5.9972 C   0  0  0  0  0  0  0  0  0  0  0  0
   -3.5494   -1.6077    4.7226 C   0  0  0  0  0  0  0  0  0  0  0  0
   -2.5026   -1.3787    3.9604 N   0  0  0  0  0  0  0  0  0  0  0  0
   -4.9161   -2.4500    7.0828 Br  0  0  0  0  0  0  0  0  0  0  0  0
    0.6662   -0.5195   -1.2487 C   0  0  0  0  0  0  0  0  0  0  0  0
    1.8198   -0.2129   -1.4971 O   0  0  0  0  0  0  0  0  0  0  0  0
    0.0499   -1.2431   -2.0123 O   0  0  0  0  0  1  0  0  0  0  0  0
    1.0039    1.9031    0.0027 H   0  0  0  0  0  0  0  0  0  0  0  0
   -0.5459    1.8868   -0.8726 H   0  0  0  0  0  0  0  0  0  0  0  0
   -0.5289    1.8773    0.9072 H   0  0  0  0  0  0  0  0  0  0  0  0
   -2.1567    0.0592   -0.3767 H   0  0  0  0  0  0  0  0  0  0  0  0
   -1.4851   -1.5993   -0.2249 H   0  0  0  0  0  0  0  0  0  0  0  0
   -1.9420    0.4849    1.9799 H   0  0  0  0  0  0  0  0  0  0  0  0
   -2.3959   -1.2469    1.9797 H   0  0  0  0  0  0  0  0  0  0  0  0
    1.2700   -1.4494    1.0106 H   0  0  0  0  0  0  0  0  0  0  0  0
    1.3852    0.2093    1.6619 H   0  0  0  0  0  0  0  0  0  0  0  0
   -0.0409   -2.3944    5.9735 H   0  0  0  0  0  0  0  0  0  0  0  0
   -1.9858   -2.8358    7.4564 H   0  0  0  0  0  0  0  0  0  0  0  0
   -4.5380   -1.3795    4.3525 H   0  0  0  0  0  0  0  0  0  0  0  0
  1  2  1  0  0  0  0
  1 19  1  0  0  0  0
  1 20  1  0  0  0  0
  1 21  1  0  0  0  0
  2  6  1  0  0  0  0
  2  3  1  0  0  0  0
  2 16  1  6  0  0  0
  3  4  1  0  0  0  0
  3 22  1  0  0  0  0
  3 23  1  0  0  0  0
  4  5  1  0  0  0  0
  4 24  1  0  0  0  0
  4 25  1  0  0  0  0
  5  6  1  0  0  0  0
  5  7  1  0  0  0  0
  6 26  1  0  0  0  0
  6 27  1  0  0  0  0
  7  8  2  0  0  0  0
  7  9  1  0  0  0  0
  9 14  2  0  0  0  0
  9 10  1  0  0  0  0
 10 11  2  0  0  0  0
 10 28  1  0  0  0  0
 11 12  1  0  0  0  0
 11 29  1  0  0  0  0
 12 13  2  0  0  0  0
 12 15  1  0  0  0  0
 13 14  1  0  0  0  0
 13 30  1  0  0  0  0
 16 17  2  0  0  0  0
 16 18  1  0  0  0  0
M  END
$$$$
ZINC40101763
 OpenBabel01252620473D

 58 60  0  0  1  0  0  0  0  0999 V2000
   -0.8300    2.1786   -5.7082 C   0  0  0  0  0  0  0  0  0  0  0  0
   -1.0165    0.6918   -6.0172 C   0  0  0  0  0  0  0  0  0  0  0  0
    0.1849   -0.0938   -5.4877 C   0  0  0  0  0  0  0  0  0  0  0  0
   -0.0017   -1.5806   -5.7967 C   0  0  0  0  0  0  0  0  0  0  0  0
    1.1204   -2.3143   -5.3022 O   0  0  0  0  0  0  0  0  0  0  0  0
    1.1121   -3.6595   -5.4963 C   0  0  0  0  0  0  0  0  0  0  0  0
    0.0466   -4.2591   -6.1552 C   0  0  0  0  0  0  0  0  0  0  0  0
    0.0322   -5.6273   -6.3552 C   0  0  0  0  0  0  0  0  0  0  0  0
    1.0767   -6.4062   -5.9014 C   0  0  0  0  0  0  0  0  0  0  0  0
    2.1527   -5.8124   -5.2383 C   0  0  0  0  0  0  0  0  0  0  0  0
    2.1683   -4.4304   -5.0422 C   0  0  0  0  0  0  0  0  0  0  0  0
    3.2740   -6.6438   -4.7504 C   0  0  0  0  0  0  0  0  0  0  0  0
    4.2473   -6.1167   -4.2455 O   0  0  0  0  0  0  0  0  0  0  0  0
    3.2129   -8.1030   -4.8753 C   0  0  0  0  0  0  0  0  0  0  0  0
    4.0157   -8.8825   -5.6371 C   0  0  0  0  0  0  0  0  0  0  0  0
    3.6160  -10.2964   -5.4741 C   0  0  0  0  0  0  0  0  0  0  0  0
    4.1460  -11.2391   -6.0279 O   0  0  0  0  0  0  0  0  0  0  0  0
    2.5791  -10.3850   -4.6216 N   0  0  0  0  0  0  0  0  0  0  0  0
    2.2459   -9.0278   -4.1734 C   0  0  1  0  0  0  0  0  0  0  0  0
    1.2218   -8.7832   -4.4553 H   0  0  0  0  0  0  0  0  0  0  0  0
    2.4137   -8.9163   -2.6799 C   0  0  0  0  0  0  0  0  0  0  0  0
    3.6440   -9.1715   -2.1031 C   0  0  0  0  0  0  0  0  0  0  0  0
    3.8031   -9.0706   -0.7336 C   0  0  0  0  0  0  0  0  0  0  0  0
    2.7282   -8.7124    0.0641 C   0  0  0  0  0  0  0  0  0  0  0  0
    1.4900   -8.4550   -0.5165 C   0  0  0  0  0  0  0  0  0  0  0  0
    1.3386   -8.5534   -1.8903 C   0  0  0  0  0  0  0  0  0  0  0  0
    0.4321   -8.1032    0.2623 O   0  0  0  0  0  0  0  0  0  0  0  0
   -0.8310   -7.9525   -0.3888 C   0  0  0  0  0  0  0  0  0  0  0  0
    2.8829   -8.6131    1.4116 O   0  0  0  0  0  0  0  0  0  0  0  0
    1.9049  -11.6187   -4.2094 C   0  0  0  0  0  0  0  0  0  0  0  0
    2.6990  -12.2816   -3.0820 C   0  0  0  0  0  0  0  0  0  0  0  0
    2.5942  -11.4904   -1.8966 O   0  0  0  0  0  0  0  0  0  0  0  0
    5.0230   -8.4382   -6.4232 O   0  5  0  0  0  0  0  0  0  0  0  0
   -0.7509    2.3185   -4.6301 H   0  0  0  0  0  0  0  0  0  0  0  0
    0.0798    2.5383   -6.1889 H   0  0  0  0  0  0  0  0  0  0  0  0
   -1.6859    2.7383   -6.0854 H   0  0  0  0  0  0  0  0  0  0  0  0
   -1.9263    0.3322   -5.5364 H   0  0  0  0  0  0  0  0  0  0  0  0
   -1.0956    0.5519   -7.0953 H   0  0  0  0  0  0  0  0  0  0  0  0
    1.0946    0.2659   -5.9685 H   0  0  0  0  0  0  0  0  0  0  0  0
    0.2639    0.0461   -4.4096 H   0  0  0  0  0  0  0  0  0  0  0  0
   -0.9114   -1.9402   -5.3160 H   0  0  0  0  0  0  0  0  0  0  0  0
   -0.0808   -1.7205   -6.8748 H   0  0  0  0  0  0  0  0  0  0  0  0
   -0.7740   -3.6546   -6.5123 H   0  0  0  0  0  0  0  0  0  0  0  0
   -0.7994   -6.0876   -6.8679 H   0  0  0  0  0  0  0  0  0  0  0  0
    1.0620   -7.4746   -6.0587 H   0  0  0  0  0  0  0  0  0  0  0  0
    2.9994   -3.9647   -4.5336 H   0  0  0  0  0  0  0  0  0  0  0  0
    4.4826   -9.4508   -2.7238 H   0  0  0  0  0  0  0  0  0  0  0  0
    4.7650   -9.2712   -0.2855 H   0  0  0  0  0  0  0  0  0  0  0  0
    0.3797   -8.3505   -2.3438 H   0  0  0  0  0  0  0  0  0  0  0  0
   -1.5740   -7.6142    0.3334 H   0  0  0  0  0  0  0  0  0  0  0  0
   -0.7418   -7.2181   -1.1893 H   0  0  0  0  0  0  0  0  0  0  0  0
   -1.1407   -8.9102   -0.8072 H   0  0  0  0  0  0  0  0  0  0  0  0
    3.1461   -7.7330    1.7135 H   0  0  0  0  0  0  0  0  0  0  0  0
    0.9006  -11.3836   -3.8569 H   0  0  0  0  0  0  0  0  0  0  0  0
    1.8420  -12.2994   -5.0584 H   0  0  0  0  0  0  0  0  0  0  0  0
    2.2974  -13.2768   -2.8913 H   0  0  0  0  0  0  0  0  0  0  0  0
    3.7461  -12.3621   -3.3738 H   0  0  0  0  0  0  0  0  0  0  0  0
    3.0746  -11.8515   -1.1390 H   0  0  0  0  0  0  0  0  0  0  0  0
  1  2  1  0  0  0  0
  1 34  1  0  0  0  0
  1 35  1  0  0  0  0
  1 36  1  0  0  0  0
  2  3  1  0  0  0  0
  2 37  1  0  0  0  0
  2 38  1  0  0  0  0
  3  4  1  0  0  0  0
  3 39  1  0  0  0  0
  3 40  1  0  0  0  0
  4  5  1  0  0  0  0
  4 41  1  0  0  0  0
  4 42  1  0  0  0  0
  5  6  1  0  0  0  0
  6 11  2  0  0  0  0
  6  7  1  0  0  0  0
  7  8  2  0  0  0  0
  7 43  1  0  0  0  0
  8  9  1  0  0  0  0
  8 44  1  0  0  0  0
  9 10  2  0  0  0  0
  9 45  1  0  0  0  0
 10 11  1  0  0  0  0
 10 12  1  0  0  0  0
 11 46  1  0  0  0  0
 12 13  2  0  0  0  0
 12 14  1  0  0  0  0
 14 19  1  0  0  0  0
 14 15  2  0  0  0  0
 15 16  1  0  0  0  0
 15 33  1  0  0  0  0
 16 17  2  0  0  0  0
 16 18  1  0  0  0  0
 18 19  1  0  0  0  0
 18 30  1  0  0  0  0
 19 20  1  6  0  0  0
 19 21  1  0  0  0  0
 21 26  2  0  0  0  0
 21 22  1  0  0  0  0
 22 23  2  0  0  0  0
 22 47  1  0  0  0  0
 23 24  1  0  0  0  0
 23 48  1  0  0  0  0
 24 25  2  0  0  0  0
 24 29  1  0  0  0  0
 25 26  1  0  0  0  0
 25 27  1  0  0  0  0
 26 49  1  0  0  0  0
 27 28  1  0  0  0  0
 28 50  1  0  0  0  0
 28 51  1  0  0  0  0
 28 52  1  0  0  0  0
 29 53  1  0  0  0  0
 30 31  1  0  0  0  0
 30 54  1  0  0  0  0
 30 55  1  0  0  0  0
 31 32  1  0  0  0  0
 31 56  1  0  0  0  0
 31 57  1  0  0  0  0
 32 58  1  0  0  0  0
M  CHG  1  33  -1
M  END
$$$$
ZINC37442251
 OpenBabel01252620473D

 37 39  0  0  1  0  0  0  0  0999 V2000
   -0.0187    1.5258    0.0104 C   0  0  0  0  0  0  0  0  0  0  0  0
    0.0021   -0.0041    0.0020 C   0  0  0  0  0  0  0  0  0  0  0  0
   -1.3723   -0.5112    0.0124 N   0  0  0  0  0  0  0  0  0  0  0  0
   -2.1315   -0.7947    1.1303 C   0  0  0  0  0  0  0  0  0  0  0  0
   -1.9031   -0.7155    2.4978 C   0  0  0  0  0  0  0  0  0  0  0  0
   -2.8940   -1.0841    3.3818 C   0  0  0  0  0  0  0  0  0  0  0  0
   -4.1210   -1.5352    2.9157 C   0  0  0  0  0  0  0  0  0  0  0  0
   -4.3663   -1.6212    1.5624 C   0  0  0  0  0  0  0  0  0  0  0  0
   -3.3707   -1.2498    0.6517 C   0  0  0  0  0  0  0  0  0  0  0  0
   -3.3064   -1.2216   -0.7046 N   0  0  0  0  0  0  0  0  0  0  0  0
   -2.1394   -0.7844   -1.0778 C   0  0  0  0  0  0  0  0  0  0  0  0
   -1.6998   -0.6100   -2.5087 C   0  0  1  0  0  0  0  0  0  0  0  0
   -0.6774   -0.2330   -2.5345 H   0  0  0  0  0  0  0  0  0  0  0  0
   -1.7708   -1.9544   -3.2361 C   0  0  0  0  0  0  0  0  0  0  0  0
   -1.5943   -1.7531   -4.7127 C   0  0  0  0  0  0  0  0  0  0  0  0
   -1.7269   -0.6124   -5.3101 C   0  0  0  0  0  0  0  0  0  0  0  0
   -2.0658    0.6700   -4.6082 C   0  0  0  0  0  0  0  0  0  0  0  0
   -2.6325    0.3801   -3.2176 C   0  0  2  0  0  0  0  0  0  0  0  0
   -3.6259   -0.0579   -3.3152 H   0  0  0  0  0  0  0  0  0  0  0  0
   -2.7135    1.6578   -2.4227 C   0  0  0  0  0  0  0  0  0  0  0  0
   -2.9086    2.7184   -2.9916 O   0  0  0  0  0  0  0  0  0  0  0  0
   -2.5840    1.6310   -1.2107 O   0  0  0  0  0  1  0  0  0  0  0  0
   -5.5630   -2.0622    1.1167 F   0  0  0  0  0  0  0  0  0  0  0  0
    1.0039    1.9031    0.0027 H   0  0  0  0  0  0  0  0  0  0  0  0
   -0.5459    1.8868   -0.8726 H   0  0  0  0  0  0  0  0  0  0  0  0
   -0.5289    1.8773    0.9072 H   0  0  0  0  0  0  0  0  0  0  0  0
    0.5123   -0.3556   -0.8948 H   0  0  0  0  0  0  0  0  0  0  0  0
    0.5293   -0.3651    0.8851 H   0  0  0  0  0  0  0  0  0  0  0  0
   -0.9506   -0.3660    2.8679 H   0  0  0  0  0  0  0  0  0  0  0  0
   -2.7144   -1.0217    4.4449 H   0  0  0  0  0  0  0  0  0  0  0  0
   -4.8891   -1.8214    3.6188 H   0  0  0  0  0  0  0  0  0  0  0  0
   -0.9824   -2.6086   -2.8640 H   0  0  0  0  0  0  0  0  0  0  0  0
   -2.7398   -2.4164   -3.0477 H   0  0  0  0  0  0  0  0  0  0  0  0
   -1.3413   -2.6135   -5.3145 H   0  0  0  0  0  0  0  0  0  0  0  0
   -1.5853   -0.5818   -6.3804 H   0  0  0  0  0  0  0  0  0  0  0  0
   -1.1652    1.2759   -4.5081 H   0  0  0  0  0  0  0  0  0  0  0  0
   -2.8043    1.2180   -5.1933 H   0  0  0  0  0  0  0  0  0  0  0  0
  1  2  1  0  0  0  0
  1 24  1  0  0  0  0
  1 25  1  0  0  0  0
  1 26  1  0  0  0  0
  2  3  1  0  0  0  0
  2 27  1  0  0  0  0
  2 28  1  0  0  0  0
  3 11  1  0  0  0  0
  3  4  1  0  0  0  0
  4  9  2  0  0  0  0
  4  5  1  0  0  0  0
  5  6  2  0  0  0  0
  5 29  1  0  0  0  0
  6  7  1  0  0  0  0
  6 30  1  0  0  0  0
  7  8  2  0  0  0  0
  7 31  1  0  0  0  0
  8  9  1  0  0  0  0
  8 23  1  0  0  0  0
  9 10  1  0  0  0  0
 10 11  2  0  0  0  0
 11 12  1  0  0  0  0
 12 13  1  6  0  0  0
 12 18  1  0  0  0  0
 12 14  1  0  0  0  0
 14 15  1  0  0  0  0
 14 32  1  0  0  0  0
 14 33  1  0  0  0  0
 15 16  2  0  0  0  0
 15 34  1  0  0  0  0
 16 17  1  0  0  0  0
 16 35  1  0  0  0  0
 17 18  1  0  0  0  0
 17 36  1  0  0  0  0
 17 37  1  0  0  0  0
 18 19  1  6  0  0  0
 18 20  1  0  0  0  0
 20 21  2  0  0  0  0
 20 22  1  0  0  0  0
M  END
$$$$
ZINC27531930
 OpenBabel01252620473D

 50 52  0  0  1  0  0  0  0  0999 V2000
    3.8433    3.0816   -0.0176 C   0  0  0  0  0  0  0  0  0  0  0  0
    2.4866    3.7376   -0.0016 C   0  0  0  0  0  0  0  0  0  0  0  0
    2.3659    5.1309    0.0070 C   0  0  0  0  0  0  0  0  0  0  0  0
    3.4377    6.1567    0.0018 C   0  0  0  0  0  0  0  0  0  0  0  0
    4.6083    5.8245   -0.0116 O   0  0  0  0  0  0  0  0  0  0  0  0
    3.0996    7.4580    0.0117 N   0  0  0  0  0  0  0  0  0  0  0  0
    1.8181    7.8587    0.0265 C   0  0  0  0  0  0  0  0  0  0  0  0
    1.5671    9.0482    0.0354 O   0  0  0  0  0  0  0  0  0  0  0  0
    0.8049    6.9715    0.0315 N   0  0  0  0  0  0  0  0  0  0  0  0
    1.0534    5.6310    0.0223 C   0  0  0  0  0  0  0  0  0  0  0  0
    0.0617    4.2211    0.0163 S   0  0  0  0  0  0  0  0  0  0  0  0
    1.3471    2.9851    0.0052 C   0  0  0  0  0  0  0  0  0  0  0  0
    1.2139    1.5283   -0.0013 C   0  0  0  0  0  0  0  0  0  0  0  0
    2.2076    0.8268   -0.0146 O   0  0  0  0  0  0  0  0  0  0  0  0
   -0.0110    0.9628    0.0073 O   0  0  0  0  0  1  0  0  0  0  0  0
   -0.5790    7.4520    0.0473 C   0  0  0  0  0  0  0  0  0  0  0  0
   -1.0672    7.6244   -1.3680 C   0  0  0  0  0  0  0  0  0  0  0  0
   -0.3315    7.3709   -2.2983 O   0  0  0  0  0  0  0  0  0  0  0  0
   -2.3212    8.0603   -1.5999 N   0  0  0  0  0  0  0  0  0  0  0  0
   -3.2261    8.3656   -0.4834 C   0  0  0  0  0  0  0  0  0  0  0  0
   -3.7623    9.7937   -0.6655 C   0  0  0  0  0  0  0  0  0  0  0  0
   -4.4064    9.9181   -2.0482 C   0  0  2  0  0  0  0  0  0  0  0  0
   -3.3541    9.6576   -3.1284 C   0  0  0  0  0  0  0  0  0  0  0  0
   -2.8114    8.2333   -2.9741 C   0  0  0  0  0  0  0  0  0  0  0  0
   -4.9756   11.3278   -2.2204 C   0  0  0  0  0  0  0  0  0  0  0  0
    4.1605    8.4684    0.0065 C   0  0  0  0  0  0  0  0  0  0  0  0
    4.5158    8.8274   -1.4377 C   0  0  0  0  0  0  0  0  0  0  0  0
    3.3938    9.4540   -2.0626 O   0  0  0  0  0  0  0  0  0  0  0  0
    4.6248    3.8557   -0.0209 H   0  0  0  0  0  0  0  0  0  0  0  0
    3.9393    2.4597   -0.9199 H   0  0  0  0  0  0  0  0  0  0  0  0
    3.9560    2.4506    0.8763 H   0  0  0  0  0  0  0  0  0  0  0  0
   -1.2150    6.7210    0.5680 H   0  0  0  0  0  0  0  0  0  0  0  0
   -0.6258    8.4179    0.5715 H   0  0  0  0  0  0  0  0  0  0  0  0
   -4.0607    7.6491   -0.4814 H   0  0  0  0  0  0  0  0  0  0  0  0
   -2.6757    8.2899    0.4660 H   0  0  0  0  0  0  0  0  0  0  0  0
   -4.5121   10.0056    0.1110 H   0  0  0  0  0  0  0  0  0  0  0  0
   -2.9325   10.5107   -0.5794 H   0  0  0  0  0  0  0  0  0  0  0  0
   -5.2173    9.1808   -2.1419 H   0  0  0  0  0  0  0  0  0  0  0  0
   -3.8125    9.7712   -4.1218 H   0  0  0  0  0  0  0  0  0  0  0  0
   -2.5308   10.3790   -3.0198 H   0  0  0  0  0  0  0  0  0  0  0  0
   -1.9849    8.0705   -3.6814 H   0  0  0  0  0  0  0  0  0  0  0  0
   -3.6122    7.5056   -3.1721 H   0  0  0  0  0  0  0  0  0  0  0  0
   -5.4386   11.4174   -3.2142 H   0  0  0  0  0  0  0  0  0  0  0  0
   -4.1645   12.0648   -2.1260 H   0  0  0  0  0  0  0  0  0  0  0  0
   -5.7329   11.5147   -1.4448 H   0  0  0  0  0  0  0  0  0  0  0  0
    3.8117    9.3690    0.5330 H   0  0  0  0  0  0  0  0  0  0  0  0
    5.0504    8.0683    0.5144 H   0  0  0  0  0  0  0  0  0  0  0  0
    5.3719    9.5181   -1.4438 H   0  0  0  0  0  0  0  0  0  0  0  0
    4.7788    7.9125   -1.9889 H   0  0  0  0  0  0  0  0  0  0  0  0
    3.4611    9.7846   -3.1096 H   0  0  0  0  0  0  0  0  0  0  0  0
  1  2  1  0  0  0  0
  1 29  1  0  0  0  0
  1 30  1  0  0  0  0
  1 31  1  0  0  0  0
  2 12  2  0  0  0  0
  2  3  1  0  0  0  0
  3 10  2  0  0  0  0
  3  4  1  0  0  0  0
  4  5  2  0  0  0  0
  4  6  1  0  0  0  0
  6  7  1  0  0  0  0
  6 26  1  0  0  0  0
  7  8  2  0  0  0  0
  7  9  1  0  0  0  0
  9 10  1  0  0  0  0
  9 16  1  0  0  0  0
 10 11  1  0  0  0  0
 11 12  1  0  0  0  0
 12 13  1  0  0  0  0
 13 14  2  0  0  0  0
 13 15  1  0  0  0  0
 16 17  1  0  0  0  0
 16 32  1  0  0  0  0
 16 33  1  0  0  0  0
 17 18  2  0  0  0  0
 17 19  1  0  0  0  0
 19 24  1  0  0  0  0
 19 20  1  0  0  0  0
 20 21  1  0  0  0  0
 20 34  1  0  0  0  0
 20 35  1  0  0  0  0
 21 22  1  0  0  0  0
 21 36  1  0  0  0  0
 21 37  1  0  0  0  0
 22 23  1  0  0  0  0
 22 25  1  0  0  0  0
 22 38  1  6  0  0  0
 23 24  1  0  0  0  0
 23 39  1  0  0  0  0
 23 40  1  0  0  0  0
 24 41  1  0  0  0  0
 24 42  1  0  0  0  0
 25 43  1  0  0  0  0
 25 44  1  0  0  0  0
 25 45  1  0  0  0  0
 26 27  1  0  0  0  0
 26 46  1  0  0  0  0
 26 47  1  0  0  0  0
 27 28  1  0  0  0  0
 27 48  1  0  0  0  0
 27 49  1  0  0  0  0
 28 50  1  0  0  0  0
M  END
$$$$
ZINC17028492
 OpenBabel01252620473D

 54 56  0  0  0  0  0  0  0  0999 V2000
   -1.4089    3.5623   -3.3700 C   0  0  0  0  0  0  0  0  0  0  0  0
   -0.4514    3.0051   -4.4253 C   0  0  0  0  0  0  0  0  0  0  0  0
    0.8891    3.5542   -4.2070 N   0  0  0  0  0  0  0  0  0  0  0  0
    1.7469    2.8966   -3.3998 C   0  0  0  0  0  0  0  0  0  0  0  0
    1.4214    1.8590   -2.8547 O   0  0  0  0  0  0  0  0  0  0  0  0
    3.0920    3.4708   -3.1967 C   0  0  0  0  0  0  0  0  0  0  0  0
    4.0246    2.8546   -2.3851 C   0  0  0  0  0  0  0  0  0  0  0  0
    5.4084    3.3287   -2.3702 C   0  0  0  0  0  0  0  0  0  0  0  0
    6.0816    3.4996   -1.1507 C   0  0  0  0  0  0  0  0  0  0  0  0
    7.3733    3.9420   -1.1436 C   0  0  0  0  0  0  0  0  0  0  0  0
    8.0225    4.2228   -2.3423 C   0  0  0  0  0  0  0  0  0  0  0  0
    7.3606    4.0553   -3.5546 C   0  0  0  0  0  0  0  0  0  0  0  0
    6.0701    3.6088   -3.5754 C   0  0  0  0  0  0  0  0  0  0  0  0
    8.0713    4.3612   -4.8478 C   0  0  0  0  0  0  0  0  0  0  0  0
    7.1906    4.1133   -5.9456 O   0  0  0  0  0  0  0  0  0  0  0  0
    7.6801    4.3414   -7.1934 C   0  0  0  0  0  0  0  0  0  0  0  0
    8.9794    4.7997   -7.3554 C   0  0  0  0  0  0  0  0  0  0  0  0
    9.4791    5.0261   -8.6226 C   0  0  0  0  0  0  0  0  0  0  0  0
    8.6770    4.8058   -9.7344 C   0  0  0  0  0  0  0  0  0  0  0  0
    7.3747    4.3525   -9.5713 C   0  0  0  0  0  0  0  0  0  0  0  0
    6.8782    4.1211   -8.3037 C   0  0  0  0  0  0  0  0  0  0  0  0
    9.1816    5.0403  -11.0202 N   0  0  0  0  0  0  0  0  0  0  0  0
    8.3814    5.5557  -11.9745 C   0  0  0  0  0  0  0  0  0  0  0  0
    7.2061    5.7462  -11.7427 O   0  0  0  0  0  0  0  0  0  0  0  0
    8.9469    5.8952  -13.3295 C   0  0  0  0  0  0  0  0  0  0  0  0
    9.3061    4.6611   -2.3286 O   0  0  0  0  0  0  0  0  0  0  0  0
    9.9269    4.8108   -1.0502 C   0  0  0  0  0  0  0  0  0  0  0  0
    3.3960    4.7329   -3.9003 C   0  0  0  0  0  0  0  0  0  0  0  0
    4.4824    5.2675   -3.7837 O   0  5  0  0  0  0  0  0  0  0  0  0
    2.4358    5.2765   -4.6764 N   0  0  0  0  0  0  0  0  0  0  0  0
    1.2364    4.6953   -4.8182 C   0  0  0  0  0  0  0  0  0  0  0  0
    0.0832    5.4552   -5.8299 S   0  0  0  0  0  0  0  0  0  0  0  0
   -2.4154    3.1500   -3.5340 H   0  0  0  0  0  0  0  0  0  0  0  0
   -1.4444    4.6588   -3.4496 H   0  0  0  0  0  0  0  0  0  0  0  0
   -1.0552    3.2787   -2.3678 H   0  0  0  0  0  0  0  0  0  0  0  0
   -0.4159    1.9086   -4.3457 H   0  0  0  0  0  0  0  0  0  0  0  0
   -0.8051    3.2887   -5.4276 H   0  0  0  0  0  0  0  0  0  0  0  0
    3.7267    2.0073   -1.7500 H   0  0  0  0  0  0  0  0  0  0  0  0
    5.5789    3.2821   -0.2199 H   0  0  0  0  0  0  0  0  0  0  0  0
    7.8925    4.0740   -0.2058 H   0  0  0  0  0  0  0  0  0  0  0  0
    5.5588    3.4750   -4.5173 H   0  0  0  0  0  0  0  0  0  0  0  0
    8.3793    5.4172   -4.8560 H   0  0  0  0  0  0  0  0  0  0  0  0
    8.9600    3.7194   -4.9385 H   0  0  0  0  0  0  0  0  0  0  0  0
    9.6017    4.9752   -6.4903 H   0  0  0  0  0  0  0  0  0  0  0  0
   10.4922    5.3783   -8.7488 H   0  0  0  0  0  0  0  0  0  0  0  0
    6.7502    4.1813  -10.4356 H   0  0  0  0  0  0  0  0  0  0  0  0
    5.8652    3.7688   -8.1767 H   0  0  0  0  0  0  0  0  0  0  0  0
   10.2308    4.8038  -11.2509 H   0  0  0  0  0  0  0  0  0  0  0  0
    8.1489    6.3008  -13.9687 H   0  0  0  0  0  0  0  0  0  0  0  0
    9.3611    4.9871  -13.7919 H   0  0  0  0  0  0  0  0  0  0  0  0
    9.7434    6.6454  -13.2169 H   0  0  0  0  0  0  0  0  0  0  0  0
   10.9581    5.1700   -1.1832 H   0  0  0  0  0  0  0  0  0  0  0  0
    9.9405    3.8399   -0.5333 H   0  0  0  0  0  0  0  0  0  0  0  0
    9.3599    5.5378   -0.4501 H   0  0  0  0  0  0  0  0  0  0  0  0
  1  2  1  0  0  0  0
  1 33  1  0  0  0  0
  1 34  1  0  0  0  0
  1 35  1  0  0  0  0
  2  3  1  0  0  0  0
  2 36  1  0  0  0  0
  2 37  1  0  0  0  0
  3 31  1  0  0  0  0
  3  4  1  0  0  0  0
  4  5  2  0  0  0  0
  4  6  1  0  0  0  0
  6  7  2  0  0  0  0
  6 28  1  0  0  0  0
  7  8  1  0  0  0  0
  7 38  1  0  0  0  0
  8 13  2  0  0  0  0
  8  9  1  0  0  0  0
  9 10  2  0  0  0  0
  9 39  1  0  0  0  0
 10 11  1  0  0  0  0
 10 40  1  0  0  0  0
 11 12  2  0  0  0  0
 11 26  1  0  0  0  0
 12 13  1  0  0  0  0
 12 14  1  0  0  0  0
 13 41  1  0  0  0  0
 14 15  1  0  0  0  0
 14 42  1  0  0  0  0
 14 43  1  0  0  0  0
 15 16  1  0  0  0  0
 16 21  2  0  0  0  0
 16 17  1  0  0  0  0
 17 18  2  0  0  0  0
 17 44  1  0  0  0  0
 18 19  1  0  0  0  0
 18 45  1  0  0  0  0
 19 20  2  0  0  0  0
 19 22  1  0  0  0  0
 20 21  1  0  0  0  0
 20 46  1  0  0  0  0
 21 47  1  0  0  0  0
 22 23  1  0  0  0  0
 22 48  1  0  0  0  0
 23 24  2  0  0  0  0
 23 25  1  0  0  0  0
 25 49  1  0  0  0  0
 25 50  1  0  0  0  0
 25 51  1  0  0  0  0
 26 27  1  0  0  0  0
 27 52  1  0  0  0  0
 27 53  1  0  0  0  0
 27 54  1  0  0  0  0
 28 29  1  0  0  0  0
 28 30  2  0  0  0  0
 30 31  1  0  0  0  0
 31 32  2  0  0  0  0
M  CHG  1  29  -1
M  END
$$$$
ZINC37238464
 OpenBabel01252620473D

 70 73  0  0  1  0  0  0  0  0999 V2000
   -0.0187    1.5258    0.0104 C   0  0  0  0  0  0  0  0  0  0  0  0
    0.0021   -0.0041    0.0020 C   0  0  1  0  0  0  0  0  0  0  0  0
    0.5947   -0.5679   -1.2920 C   0  0  0  0  0  0  0  0  0  0  0  0
    2.1016   -0.3320   -1.3357 C   0  0  0  0  0  0  0  0  0  0  0  0
    2.7558   -1.0831   -0.1702 C   0  0  2  0  0  0  0  0  0  0  0  0
    2.5170   -2.1445   -0.2378 H   0  0  0  0  0  0  0  0  0  0  0  0
    2.2163   -0.5180    1.1415 C   0  0  1  0  0  0  0  0  0  0  0  0
    2.4891    0.5350    1.2109 H   0  0  0  0  0  0  0  0  0  0  0  0
    0.7331   -0.5862    1.2242 C   0  0  2  0  0  0  0  0  0  0  0  0
    0.4053   -0.0505    2.1151 H   0  0  0  0  0  0  0  0  0  0  0  0
    0.2399   -2.0358    1.3273 C   0  0  0  0  0  0  0  0  0  0  0  0
   -1.1453   -2.0599    0.6499 C   0  0  0  0  0  0  0  0  0  0  0  0
   -1.4193   -0.6204    0.1622 C   0  0  2  0  0  0  0  0  0  0  0  0
   -1.9945   -0.0677    0.9051 H   0  0  0  0  0  0  0  0  0  0  0  0
   -2.1030   -0.6374   -1.0925 O   0  0  0  0  0  0  0  0  0  0  0  0
   -3.4410   -0.5346   -1.0588 C   0  0  0  0  0  0  0  0  0  0  0  0
   -4.0127   -0.4335    0.0008 O   0  0  0  0  0  0  0  0  0  0  0  0
   -4.2300   -0.5453   -2.3427 C   0  0  0  0  0  0  0  0  0  0  0  0
   -5.7212   -0.4154   -2.0260 C   0  0  0  0  0  0  0  0  0  0  0  0
   -6.5103   -0.4261   -3.3098 C   0  0  0  0  0  0  0  0  0  0  0  0
   -5.9364   -0.5276   -4.3735 O   0  0  0  0  0  0  0  0  0  0  0  0
   -7.8536   -0.3229   -3.2761 N   0  0  0  0  0  0  0  0  0  0  0  0
   -8.6207   -0.3332   -4.5242 C   0  0  1  0  0  0  0  0  0  0  0  0
   -8.1408   -1.0006   -5.2400 H   0  0  0  0  0  0  0  0  0  0  0  0
  -10.0430   -0.8229   -4.2446 C   0  0  0  0  0  0  0  0  0  0  0  0
  -10.7115    0.1142   -3.3978 O   0  0  0  0  0  0  0  0  0  0  0  0
   -8.6723    1.0610   -5.0937 C   0  0  0  0  0  0  0  0  0  0  0  0
   -8.7470    1.2246   -6.2996 O   0  0  0  0  0  0  0  0  0  0  0  0
   -8.6392    2.0255   -4.3486 O   0  0  0  0  0  1  0  0  0  0  0  0
    2.8432   -1.2712    2.3197 C   0  0  0  0  0  0  0  0  0  0  0  0
    4.3512   -1.0141    2.3395 C   0  0  0  0  0  0  0  0  0  0  0  0
    4.9276   -1.4054    0.9909 C   0  0  0  0  0  0  0  0  0  0  0  0
    5.9986   -2.1980    0.9793 C   0  0  0  0  0  0  0  0  0  0  0  0
    6.6046   -2.5934   -0.2969 C   0  0  0  0  0  0  0  0  0  0  0  0
    7.3065   -3.5783   -0.3931 O   0  0  0  0  0  0  0  0  0  0  0  0
    6.3064   -1.7055   -1.4893 C   0  0  0  0  0  0  0  0  0  0  0  0
    4.7940   -1.4930   -1.5345 C   0  0  0  0  0  0  0  0  0  0  0  0
    4.2752   -0.8896   -0.2576 C   0  0  1  0  0  0  0  0  0  0  0  0
    4.5559    0.6123   -0.3382 C   0  0  0  0  0  0  0  0  0  0  0  0
    1.0039    1.9031    0.0027 H   0  0  0  0  0  0  0  0  0  0  0  0
   -0.5459    1.8868   -0.8726 H   0  0  0  0  0  0  0  0  0  0  0  0
   -0.5289    1.8773    0.9072 H   0  0  0  0  0  0  0  0  0  0  0  0
    0.3959   -1.6384   -1.3430 H   0  0  0  0  0  0  0  0  0  0  0  0
    0.1282   -0.0768   -2.1460 H   0  0  0  0  0  0  0  0  0  0  0  0
    2.5018   -0.7026   -2.2794 H   0  0  0  0  0  0  0  0  0  0  0  0
    2.3069    0.7345   -1.2439 H   0  0  0  0  0  0  0  0  0  0  0  0
    0.9251   -2.7038    0.8055 H   0  0  0  0  0  0  0  0  0  0  0  0
    0.1519   -2.3292    2.3734 H   0  0  0  0  0  0  0  0  0  0  0  0
   -1.1354   -2.7460   -0.1970 H   0  0  0  0  0  0  0  0  0  0  0  0
   -1.9074   -2.3628    1.3681 H   0  0  0  0  0  0  0  0  0  0  0  0
   -3.9173    0.2907   -2.9683 H   0  0  0  0  0  0  0  0  0  0  0  0
   -4.0511   -1.4816   -2.8714 H   0  0  0  0  0  0  0  0  0  0  0  0
   -6.0339   -1.2514   -1.4003 H   0  0  0  0  0  0  0  0  0  0  0  0
   -5.9002    0.5209   -1.4973 H   0  0  0  0  0  0  0  0  0  0  0  0
   -8.3126   -0.2417   -2.4254 H   0  0  0  0  0  0  0  0  0  0  0  0
  -10.5868   -0.9153   -5.1847 H   0  0  0  0  0  0  0  0  0  0  0  0
  -10.0026   -1.7940   -3.7512 H   0  0  0  0  0  0  0  0  0  0  0  0
  -11.6205   -0.1325   -3.1786 H   0  0  0  0  0  0  0  0  0  0  0  0
    2.4019   -0.9198    3.2524 H   0  0  0  0  0  0  0  0  0  0  0  0
    2.6577   -2.3395    2.2087 H   0  0  0  0  0  0  0  0  0  0  0  0
    4.5396    0.0434    2.5249 H   0  0  0  0  0  0  0  0  0  0  0  0
    4.8143   -1.6136    3.1232 H   0  0  0  0  0  0  0  0  0  0  0  0
    6.4207   -2.5491    1.9094 H   0  0  0  0  0  0  0  0  0  0  0  0
    6.8119   -0.7469   -1.3729 H   0  0  0  0  0  0  0  0  0  0  0  0
    6.6397   -2.1921   -2.4059 H   0  0  0  0  0  0  0  0  0  0  0  0
    4.5527   -0.8333   -2.3680 H   0  0  0  0  0  0  0  0  0  0  0  0
    4.3046   -2.4543   -1.6908 H   0  0  0  0  0  0  0  0  0  0  0  0
    4.1643    1.1035    0.5525 H   0  0  0  0  0  0  0  0  0  0  0  0
    5.6314    0.7780   -0.4014 H   0  0  0  0  0  0  0  0  0  0  0  0
    4.0720    1.0253   -1.2233 H   0  0  0  0  0  0  0  0  0  0  0  0
  1 40  1  0  0  0  0
  1 41  1  0  0  0  0
  1 42  1  0  0  0  0
  2  1  1  1  0  0  0
  2  9  1  0  0  0  0
  2 13  1  0  0  0  0
  2  3  1  0  0  0  0
  3  4  1  0  0  0  0
  3 43  1  0  0  0  0
  3 44  1  0  0  0  0
  4  5  1  0  0  0  0
  4 45  1  0  0  0  0
  4 46  1  0  0  0  0
  5  6  1  6  0  0  0
  5 38  1  0  0  0  0
  5  7  1  0  0  0  0
  7  8  1  1  0  0  0
  7  9  1  0  0  0  0
  7 30  1  0  0  0  0
  9 10  1  1  0  0  0
  9 11  1  0  0  0  0
 11 12  1  0  0  0  0
 11 47  1  0  0  0  0
 11 48  1  0  0  0  0
 12 13  1  0  0  0  0
 12 49  1  0  0  0  0
 12 50  1  0  0  0  0
 13 14  1  1  0  0  0
 13 15  1  0  0  0  0
 15 16  1  0  0  0  0
 16 17  2  0  0  0  0
 16 18  1  0  0  0  0
 18 19  1  0  0  0  0
 18 51  1  0  0  0  0
 18 52  1  0  0  0  0
 19 20  1  0  0  0  0
 19 53  1  0  0  0  0
 19 54  1  0  0  0  0
 20 21  2  0  0  0  0
 20 22  1  0  0  0  0
 22 23  1  0  0  0  0
 22 55  1  0  0  0  0
 23 24  1  6  0  0  0
 23 25  1  0  0  0  0
 23 27  1  0  0  0  0
 25 26  1  0  0  0  0
 25 56  1  0  0  0  0
 25 57  1  0  0  0  0
 26 58  1  0  0  0  0
 27 28  2  0  0  0  0
 27 29  1  0  0  0  0
 30 31  1  0  0  0  0
 30 59  1  0  0  0  0
 30 60  1  0  0  0  0
 31 32  1  0  0  0  0
 31 61  1  0  0  0  0
 31 62  1  0  0  0  0
 32 38  1  0  0  0  0
 32 33  2  0  0  0  0
 33 34  1  0  0  0  0
 33 63  1  0  0  0  0
 34 35  2  0  0  0  0
 34 36  1  0  0  0  0
 36 37  1  0  0  0  0
 36 64  1  0  0  0  0
 36 65  1  0  0  0  0
 37 38  1  0  0  0  0
 37 66  1  0  0  0  0
 37 67  1  0  0  0  0
 38 39  1  6  0  0  0
 39 68  1  0  0  0  0
 39 69  1  0  0  0  0
 39 70  1  0  0  0  0
M  END
$$$$
ZINC64654801
 OpenBabel01252620473D

 40 41  0  0  0  0  0  0  0  0999 V2000
   -0.0187    1.5258    0.0104 C   0  0  0  0  0  0  0  0  0  0  0  0
    0.0021   -0.0041    0.0020 C   0  0  0  0  0  0  0  0  0  0  0  0
   -1.3386   -0.4987    0.0122 O   0  0  0  0  0  0  0  0  0  0  0  0
   -1.4968   -1.8354    0.0065 C   0  0  0  0  0  0  0  0  0  0  0  0
   -0.4183   -2.6408   -0.0081 O   0  5  0  0  0  0  0  0  0  0  0  0
   -2.7731   -2.3838    0.0157 C   0  0  0  0  0  0  0  0  0  0  0  0
   -3.9557   -1.5006    0.0318 C   0  0  0  0  0  0  0  0  0  0  0  0
   -4.0171   -0.1753    0.0340 N   0  0  0  0  0  0  0  0  0  0  0  0
   -5.1730    0.4524    0.0487 C   0  0  0  0  0  0  0  0  0  0  0  0
   -6.3287   -0.2577    0.0619 C   0  0  0  0  0  0  0  0  0  0  0  0
   -5.6916   -1.9286    0.0455 S   0  0  0  0  0  0  0  0  0  0  0  0
   -5.2132    1.9589    0.0514 C   0  0  0  0  0  0  0  0  0  0  0  0
   -2.9385   -3.7816    0.0098 C   0  0  0  0  0  0  0  0  0  0  0  0
   -1.9648   -4.5087   -0.0034 O   0  0  0  0  0  0  0  0  0  0  0  0
   -4.3231   -4.3765    0.0198 C   0  0  0  0  0  0  0  0  0  0  0  0
   -4.2036   -6.1865    0.0090 S   0  0  0  0  0  0  0  0  0  0  0  0
   -5.8814   -6.7245    0.0221 C   0  0  0  0  0  0  0  0  0  0  0  0
   -6.9487   -5.9556    0.0307 N   0  0  0  0  0  0  0  0  0  0  0  0
   -8.0167   -6.6688    0.0390 N   0  0  0  0  0  0  0  0  0  0  0  0
   -7.7182   -7.9228    0.0364 N   0  0  0  0  0  0  0  0  0  0  0  0
   -6.3149   -8.0072    0.0194 N   0  0  0  0  0  0  0  0  0  0  0  0
   -5.4970   -9.2225    0.0046 C   0  0  0  0  0  0  0  0  0  0  0  0
   -5.2025   -9.6471    1.4202 C   0  0  0  0  0  0  0  0  0  0  0  0
   -5.5051  -10.8582    1.8172 C   0  0  0  0  0  0  0  0  0  0  0  0
    1.0039    1.9031    0.0027 H   0  0  0  0  0  0  0  0  0  0  0  0
   -0.5459    1.8868   -0.8726 H   0  0  0  0  0  0  0  0  0  0  0  0
   -0.5289    1.8773    0.9072 H   0  0  0  0  0  0  0  0  0  0  0  0
    0.5123   -0.3556   -0.8948 H   0  0  0  0  0  0  0  0  0  0  0  0
    0.5293   -0.3651    0.8851 H   0  0  0  0  0  0  0  0  0  0  0  0
   -7.3512    0.0900    0.0747 H   0  0  0  0  0  0  0  0  0  0  0  0
   -5.2356    2.3236   -0.9755 H   0  0  0  0  0  0  0  0  0  0  0  0
   -6.1061    2.2975    0.5768 H   0  0  0  0  0  0  0  0  0  0  0  0
   -4.3269    2.3451    0.5549 H   0  0  0  0  0  0  0  0  0  0  0  0
   -4.8512   -4.0526    0.9167 H   0  0  0  0  0  0  0  0  0  0  0  0
   -4.8682   -4.0430   -0.8632 H   0  0  0  0  0  0  0  0  0  0  0  0
   -6.0376  -10.0181   -0.5083 H   0  0  0  0  0  0  0  0  0  0  0  0
   -4.5610   -9.0242   -0.5175 H   0  0  0  0  0  0  0  0  0  0  0  0
   -4.7420   -8.9528    2.1075 H   0  0  0  0  0  0  0  0  0  0  0  0
   -5.9656  -11.5525    1.1300 H   0  0  0  0  0  0  0  0  0  0  0  0
   -5.2940  -11.1625    2.8318 H   0  0  0  0  0  0  0  0  0  0  0  0
  1  2  1  0  0  0  0
  1 25  1  0  0  0  0
  1 26  1  0  0  0  0
  1 27  1  0  0  0  0
  2  3  1  0  0  0  0
  2 28  1  0  0  0  0
  2 29  1  0  0  0  0
  3  4  1  0  0  0  0
  4  5  1  0  0  0  0
  4  6  2  0  0  0  0
  6  7  1  0  0  0  0
  6 13  1  0  0  0  0
  7 11  1  0  0  0  0
  7  8  2  0  0  0  0
  8  9  1  0  0  0  0
  9 10  2  0  0  0  0
  9 12  1  0  0  0  0
 10 11  1  0  0  0  0
 10 30  1  0  0  0  0
 12 31  1  0  0  0  0
 12 32  1  0  0  0  0
 12 33  1  0  0  0  0
 13 14  2  0  0  0  0
 13 15  1  0  0  0  0
 15 16  1  0  0  0  0
 15 34  1  0  0  0  0
 15 35  1  0  0  0  0
 16 17  1  0  0  0  0
 17 21  1  0  0  0  0
 17 18  2  0  0  0  0
 18 19  1  0  0  0  0
 19 20  2  0  0  0  0
 20 21  1  0  0  0  0
 21 22  1  0  0  0  0
 22 23  1  0  0  0  0
 22 36  1  0  0  0  0
 22 37  1  0  0  0  0
 23 24  2  0  0  0  0
 23 38  1  0  0  0  0
 24 39  1  0  0  0  0
 24 40  1  0  0  0  0
M  CHG  1   5  -1
M  END
$$$$
ZINC06545770
 OpenBabel01252620473D

 34 37  0  0  1  0  0  0  0  0999 V2000
    2.0891    3.8679   -4.2253 C   0  0  0  0  0  0  0  0  0  0  0  0
    2.6614    3.3372   -5.3659 C   0  0  0  0  0  0  0  0  0  0  0  0
    1.9665    2.5539   -6.1674 N   0  0  0  0  0  0  0  0  0  0  0  0
    0.7103    2.2425   -5.9148 C   0  0  0  0  0  0  0  0  0  0  0  0
    0.0730    2.7320   -4.7904 C   0  0  0  0  0  0  0  0  0  0  0  0
    0.7715    3.5589   -3.9240 C   0  0  0  0  0  0  0  0  0  0  0  0
    0.1124    4.1136   -2.6875 C   0  0  0  0  0  0  0  0  0  0  0  0
    0.3158    3.1892   -1.5693 N   0  0  0  0  0  0  0  0  0  0  0  0
    1.4667    3.2378   -0.6357 C   0  0  0  0  0  0  0  0  0  0  0  0
    1.4712    1.8848    0.0043 C   0  0  2  0  0  0  0  0  0  0  0  0
    2.0147    1.5906    1.3565 C   0  0  0  0  0  0  0  0  0  0  0  0
    2.0401    0.2528    1.4042 C   0  0  0  0  0  0  0  0  0  0  0  0
    1.5431   -0.2612    0.0481 C   0  0  2  0  0  0  0  0  0  0  0  0
    1.8592   -1.2674   -0.2270 H   0  0  0  0  0  0  0  0  0  0  0  0
    2.0080    0.8252   -0.8325 O   0  0  0  0  0  0  0  0  0  0  0  0
    0.0021   -0.0041    0.0020 C   0  0  1  0  0  0  0  0  0  0  0  0
   -0.4909   -0.4316    0.8751 H   0  0  0  0  0  0  0  0  0  0  0  0
   -0.0620    1.5336    0.0314 C   0  0  2  0  0  0  0  0  0  0  0  0
   -0.5764    1.9165    0.9129 H   0  0  0  0  0  0  0  0  0  0  0  0
   -0.5235    2.1722   -1.2480 C   0  0  0  0  0  0  0  0  0  0  0  0
   -1.4936    1.8326   -1.8919 O   0  0  0  0  0  0  0  0  0  0  0  0
   -0.5967   -0.5443   -1.2710 C   0  0  0  0  0  0  0  0  0  0  0  0
    0.0887   -0.6605   -2.2593 O   0  0  0  0  0  0  0  0  0  0  0  0
    2.6620    4.5125   -3.5752 H   0  0  0  0  0  0  0  0  0  0  0  0
    3.6883    3.5704   -5.6059 H   0  0  0  0  0  0  0  0  0  0  0  0
    0.1731    1.5978   -6.5947 H   0  0  0  0  0  0  0  0  0  0  0  0
   -0.9563    2.4740   -4.5894 H   0  0  0  0  0  0  0  0  0  0  0  0
   -0.9555    4.2354   -2.8686 H   0  0  0  0  0  0  0  0  0  0  0  0
    0.5523    5.0807   -2.4441 H   0  0  0  0  0  0  0  0  0  0  0  0
    1.3178    4.0147    0.1142 H   0  0  0  0  0  0  0  0  0  0  0  0
    2.3960    3.4063   -1.1798 H   0  0  0  0  0  0  0  0  0  0  0  0
    2.3183    2.2912    2.1203 H   0  0  0  0  0  0  0  0  0  0  0  0
    2.3527   -0.3520    2.2426 H   0  0  0  0  0  0  0  0  0  0  0  0
   -1.8915   -0.8964   -1.3071 O   0  0  0  0  0  1  0  0  0  0  0  0
  1  6  2  0  0  0  0
  1  2  1  0  0  0  0
  1 24  1  0  0  0  0
  2  3  2  0  0  0  0
  2 25  1  0  0  0  0
  3  4  1  0  0  0  0
  4  5  2  0  0  0  0
  4 26  1  0  0  0  0
  5  6  1  0  0  0  0
  5 27  1  0  0  0  0
  6  7  1  0  0  0  0
  7  8  1  0  0  0  0
  7 28  1  0  0  0  0
  7 29  1  0  0  0  0
  8 20  1  0  0  0  0
  8  9  1  0  0  0  0
  9 10  1  0  0  0  0
  9 30  1  0  0  0  0
  9 31  1  0  0  0  0
 10 15  1  6  0  0  0
 10 18  1  0  0  0  0
 10 11  1  0  0  0  0
 11 12  2  0  0  0  0
 11 32  1  0  0  0  0
 12 13  1  0  0  0  0
 12 33  1  0  0  0  0
 13 14  1  6  0  0  0
 13 15  1  0  0  0  0
 13 16  1  0  0  0  0
 16 17  1  1  0  0  0
 16 18  1  0  0  0  0
 16 22  1  0  0  0  0
 18 19  1  1  0  0  0
 18 20  1  0  0  0  0
 20 21  2  0  0  0  0
 22 23  2  0  0  0  0
 22 34  1  0  0  0  0
M  END
$$$$
ZINC41305994
 OpenBabel01252620473D

 28 30  0  0  0  0  0  0  0  0999 V2000
   -0.0168    1.3907    0.0097 C   0  0  0  0  0  0  0  0  0  0  0  0
    1.1674    2.0978    0.0022 C   0  0  0  0  0  0  0  0  0  0  0  0
    2.3783    1.4218   -0.0130 C   0  0  0  0  0  0  0  0  0  0  0  0
    2.4042    0.0261   -0.0207 C   0  0  0  0  0  0  0  0  0  0  0  0
    1.2172   -0.6849   -0.0138 C   0  0  0  0  0  0  0  0  0  0  0  0
    0.0021   -0.0041    0.0020 C   0  0  0  0  0  0  0  0  0  0  0  0
   -1.2726   -0.7627    0.0106 C   0  0  0  0  0  0  0  0  0  0  0  0
   -2.4674   -0.1050   -0.0822 C   0  0  0  0  0  0  0  0  0  0  0  0
   -3.6081   -1.4807   -0.0240 S   0  0  0  0  0  0  0  0  0  0  0  0
   -2.3863   -2.7778    0.1166 C   0  0  0  0  0  0  0  0  0  0  0  0
   -1.2634   -2.0840    0.1026 N   0  0  0  0  0  0  0  0  0  0  0  0
   -2.5697   -4.1520    0.2104 N   0  0  0  0  0  0  0  0  0  0  0  0
   -3.8148   -4.6679    0.2012 C   0  0  0  0  0  0  0  0  0  0  0  0
   -4.7751   -3.9328    0.1111 O   0  0  0  0  0  0  0  0  0  0  0  0
   -4.0136   -6.1583    0.3029 C   0  0  0  0  0  0  0  0  0  0  0  0
   -5.3816   -6.4494    0.2726 F   0  0  0  0  0  0  0  0  0  0  0  0
   -3.3789   -6.7879   -0.7732 F   0  0  0  0  0  0  0  0  0  0  0  0
   -3.4648   -6.6211    1.5037 F   0  0  0  0  0  0  0  0  0  0  0  0
    3.7063   -0.3520   -0.0351 O   0  0  0  0  0  0  0  0  0  0  0  0
    4.4834    0.7424   -0.0367 C   0  0  0  0  0  0  0  0  0  0  0  0
    5.6993    0.7398   -0.0486 O   0  0  0  0  0  0  0  0  0  0  0  0
    3.7079    1.8444   -0.0234 N   0  0  0  0  0  0  0  0  0  0  0  0
    4.0176    2.7636   -0.0217 H   0  0  0  0  0  0  0  0  0  0  0  0
   -0.9596    1.9173    0.0260 H   0  0  0  0  0  0  0  0  0  0  0  0
    1.1516    3.1777    0.0077 H   0  0  0  0  0  0  0  0  0  0  0  0
    1.2328   -1.7648   -0.0198 H   0  0  0  0  0  0  0  0  0  0  0  0
   -2.6671    0.9530   -0.1666 H   0  0  0  0  0  0  0  0  0  0  0  0
   -1.8016   -4.7400    0.2824 H   0  0  0  0  0  0  0  0  0  0  0  0
  1  6  2  0  0  0  0
  1  2  1  0  0  0  0
  1 24  1  0  0  0  0
  2  3  2  0  0  0  0
  2 25  1  0  0  0  0
  3 22  1  0  0  0  0
  3  4  1  0  0  0  0
  4  5  2  0  0  0  0
  4 19  1  0  0  0  0
  5  6  1  0  0  0  0
  5 26  1  0  0  0  0
  6  7  1  0  0  0  0
  7 11  1  0  0  0  0
  7  8  2  0  0  0  0
  8  9  1  0  0  0  0
  8 27  1  0  0  0  0
  9 10  1  0  0  0  0
 10 11  2  0  0  0  0
 10 12  1  0  0  0  0
 12 13  1  0  0  0  0
 12 28  1  0  0  0  0
 13 14  2  0  0  0  0
 13 15  1  0  0  0  0
 15 16  1  0  0  0  0
 15 17  1  0  0  0  0
 15 18  1  0  0  0  0
 19 20  1  0  0  0  0
 20 21  2  0  0  0  0
 20 22  1  0  0  0  0
 22 23  1  0  0  0  0
M  END
$$$$
ZINC39724742
 OpenBabel01252620473D

 54 55  0  0  1  0  0  0  0  0999 V2000
   -0.1624    1.9471    1.1897 C   0  0  0  0  0  0  0  0  0  0  0  0
   -0.1392    0.4500    0.8750 C   0  0  0  0  0  0  0  0  0  0  0  0
    0.6095   -0.2365    1.8800 O   0  0  0  0  0  0  0  0  0  0  0  0
    0.7264   -1.5674    1.7503 C   0  0  0  0  0  0  0  0  0  0  0  0
    0.2102   -2.1308    0.8144 O   0  0  0  0  0  0  0  0  0  0  0  0
    1.5016   -2.3589    2.7719 C   0  0  1  0  0  0  0  0  0  0  0  0
    1.4609   -1.8794    3.7500 H   0  0  0  0  0  0  0  0  0  0  0  0
    1.0061   -3.7925    2.8443 C   0  0  0  0  0  0  0  0  0  0  0  0
    1.8910   -4.7578    2.8280 C   0  0  0  0  0  0  0  0  0  0  0  0
    3.3609   -4.3871    2.7378 C   0  0  2  0  0  0  0  0  0  0  0  0
    3.8511   -4.4864    3.7062 H   0  0  0  0  0  0  0  0  0  0  0  0
    3.2464   -2.6160    2.2296 S   0  0  0  0  0  0  0  0  0  0  0  0
    4.0453   -5.1869    1.7188 N   0  0  0  0  0  0  0  0  0  0  0  0
    4.8887   -4.5937    0.8509 C   0  0  0  0  0  0  0  0  0  0  0  0
    5.0810   -3.3978    0.9134 O   0  0  0  0  0  0  0  0  0  0  0  0
    5.5928   -5.4163   -0.1972 C   0  0  0  0  0  0  0  0  0  0  0  0
    6.6497   -4.3382   -1.2028 S   0  0  0  0  0  0  0  0  0  0  0  0
    7.3931   -5.4340   -2.3652 C   0  0  0  0  0  0  0  0  0  0  0  0
    7.0886   -6.7234   -2.3245 N   0  0  0  0  0  0  0  0  0  0  0  0
    7.6317   -7.5741   -3.1862 C   0  0  0  0  0  0  0  0  0  0  0  0
    7.3175   -8.8916   -3.1416 O   0  5  0  0  0  0  0  0  0  0  0  0
    8.5297   -7.0933   -4.1386 C   0  0  0  0  0  0  0  0  0  0  0  0
    8.8209   -5.7422   -4.1481 C   0  0  0  0  0  0  0  0  0  0  0  0
    8.2388   -4.9480   -3.2624 N   0  0  0  0  0  0  0  0  0  0  0  0
    9.7860   -5.1781   -5.1587 C   0  0  0  0  0  0  0  0  0  0  0  0
    9.1688   -8.0261   -5.1348 C   0  0  0  0  0  0  0  0  0  0  0  0
    1.4719   -6.1647    2.8950 C   0  0  0  0  0  0  0  0  0  0  0  0
    0.2917   -6.4503    2.8437 O   0  0  0  0  0  0  0  0  0  0  0  0
    2.3965   -7.1385    3.0133 O   0  0  0  0  0  0  0  0  0  0  0  0
    1.9180   -8.4837    3.0727 C   0  0  0  0  0  0  0  0  0  0  0  0
    3.1038   -9.4414    3.2055 C   0  0  0  0  0  0  0  0  0  0  0  0
   -0.4671   -4.0969    2.9331 C   0  0  0  0  0  0  0  0  0  0  0  0
    0.8579    2.3303    1.2081 H   0  0  0  0  0  0  0  0  0  0  0  0
   -0.7335    2.4707    0.4231 H   0  0  0  0  0  0  0  0  0  0  0  0
   -0.6280    2.1068    2.1622 H   0  0  0  0  0  0  0  0  0  0  0  0
   -1.1595    0.0668    0.8566 H   0  0  0  0  0  0  0  0  0  0  0  0
    0.3264    0.2903   -0.0975 H   0  0  0  0  0  0  0  0  0  0  0  0
    3.8915   -6.1433    1.6689 H   0  0  0  0  0  0  0  0  0  0  0  0
    6.2057   -6.1758    0.2882 H   0  0  0  0  0  0  0  0  0  0  0  0
    4.8540   -5.8997   -0.8365 H   0  0  0  0  0  0  0  0  0  0  0  0
    9.2409   -4.8790   -6.0540 H   0  0  0  0  0  0  0  0  0  0  0  0
   10.2910   -4.3105   -4.7340 H   0  0  0  0  0  0  0  0  0  0  0  0
   10.5241   -5.9367   -5.4192 H   0  0  0  0  0  0  0  0  0  0  0  0
    8.5450   -8.0882   -6.0265 H   0  0  0  0  0  0  0  0  0  0  0  0
   10.1543   -7.6477   -5.4065 H   0  0  0  0  0  0  0  0  0  0  0  0
    9.2695   -9.0170   -4.6921 H   0  0  0  0  0  0  0  0  0  0  0  0
    1.2606   -8.5977    3.9346 H   0  0  0  0  0  0  0  0  0  0  0  0
    1.3657   -8.7134    2.1616 H   0  0  0  0  0  0  0  0  0  0  0  0
    2.7388  -10.4674    3.2508 H   0  0  0  0  0  0  0  0  0  0  0  0
    3.7612   -9.3273    2.3436 H   0  0  0  0  0  0  0  0  0  0  0  0
    3.6561   -9.2116    4.1167 H   0  0  0  0  0  0  0  0  0  0  0  0
   -0.8569   -4.3004    1.9357 H   0  0  0  0  0  0  0  0  0  0  0  0
   -0.6202   -4.9695    3.5681 H   0  0  0  0  0  0  0  0  0  0  0  0
   -0.9899   -3.2409    3.3598 H   0  0  0  0  0  0  0  0  0  0  0  0
  1  2  1  0  0  0  0
  1 33  1  0  0  0  0
  1 34  1  0  0  0  0
  1 35  1  0  0  0  0
  2  3  1  0  0  0  0
  2 36  1  0  0  0  0
  2 37  1  0  0  0  0
  3  4  1  0  0  0  0
  4  5  2  0  0  0  0
  4  6  1  0  0  0  0
  6  7  1  1  0  0  0
  6 12  1  0  0  0  0
  6  8  1  0  0  0  0
  8  9  2  0  0  0  0
  8 32  1  0  0  0  0
  9 10  1  0  0  0  0
  9 27  1  0  0  0  0
 10 11  1  1  0  0  0
 10 12  1  0  0  0  0
 10 13  1  0  0  0  0
 13 14  1  0  0  0  0
 13 38  1  0  0  0  0
 14 15  2  0  0  0  0
 14 16  1  0  0  0  0
 16 39  1  0  0  0  0
 16 40  1  0  0  0  0
 16 17  1  0  0  0  0
 17 18  1  0  0  0  0
 18 24  2  0  0  0  0
 18 19  1  0  0  0  0
 19 20  2  0  0  0  0
 20 21  1  0  0  0  0
 20 22  1  0  0  0  0
 22 26  1  0  0  0  0
 22 23  2  0  0  0  0
 23 24  1  0  0  0  0
 23 25  1  0  0  0  0
 25 41  1  0  0  0  0
 25 42  1  0  0  0  0
 25 43  1  0  0  0  0
 26 44  1  0  0  0  0
 26 45  1  0  0  0  0
 26 46  1  0  0  0  0
 27 28  2  0  0  0  0
 27 29  1  0  0  0  0
 29 30  1  0  0  0  0
 30 31  1  0  0  0  0
 30 47  1  0  0  0  0
 30 48  1  0  0  0  0
 31 49  1  0  0  0  0
 31 50  1  0  0  0  0
 31 51  1  0  0  0  0
 32 52  1  0  0  0  0
 32 53  1  0  0  0  0
 32 54  1  0  0  0  0
M  CHG  1  21  -1
M  END
$$$$
ZINC67045570
 OpenBabel01252620473D

 47 48  0  0  0  0  0  0  0  0999 V2000
    2.4867   -2.5778    2.0971 C   0  0  0  0  0  0  0  0  0  0  0  0
    1.6560   -1.9668    0.9981 C   0  0  0  0  0  0  0  0  0  0  0  0
    1.4854   -2.6417   -0.1947 C   0  0  0  0  0  0  0  0  0  0  0  0
    0.7201   -2.0787   -1.2071 C   0  0  0  0  0  0  0  0  0  0  0  0
    0.1267   -0.8371   -1.0195 C   0  0  0  0  0  0  0  0  0  0  0  0
    0.2982   -0.1636    0.1735 C   0  0  0  0  0  0  0  0  0  0  0  0
    1.0584   -0.7295    1.1869 C   0  0  0  0  0  0  0  0  0  0  0  0
    1.2220   -0.0683    2.3637 O   0  0  0  0  0  0  0  0  0  0  0  0
    0.5783    1.2013    2.4895 C   0  0  0  0  0  0  0  0  0  0  0  0
    0.5469   -2.7622   -2.4171 N   0  0  0  0  0  0  0  0  0  0  0  0
    0.4974   -4.1090   -2.4292 C   0  0  0  0  0  0  0  0  0  0  0  0
    0.5088   -4.7273   -1.3819 O   0  0  0  0  0  0  0  0  0  0  0  0
    0.4294   -4.8326   -3.7117 C   0  0  0  0  0  0  0  0  0  0  0  0
    0.4219   -4.1261   -4.9172 C   0  0  0  0  0  0  0  0  0  0  0  0
    0.3584   -4.8120   -6.1169 C   0  0  0  0  0  0  0  0  0  0  0  0
    0.3015   -6.2024   -6.1263 C   0  0  0  0  0  0  0  0  0  0  0  0
    0.3080   -6.9083   -4.9417 C   0  0  0  0  0  0  0  0  0  0  0  0
    0.3777   -6.2347   -3.7285 C   0  0  0  0  0  0  0  0  0  0  0  0
    0.3903   -6.9476   -2.5345 N   0  0  0  0  0  2  0  0  0  0  0  0
    0.3292   -8.6023   -2.5575 S   0  0  0  0  0  0  0  0  0  0  0  0
   -0.9365   -8.9106   -3.1251 O   0  0  0  0  0  0  0  0  0  0  0  0
    1.5298   -9.0006   -3.2049 O   0  0  0  0  0  0  0  0  0  0  0  0
    0.3678   -9.0945   -0.8119 C   0  0  0  0  0  0  0  0  0  0  0  0
    0.3509   -4.1042   -7.3267 N   0  0  0  0  0  0  0  0  0  0  0  0
    0.9369   -4.6317   -8.4197 C   0  0  0  0  0  0  0  0  0  0  0  0
    1.5506   -5.6745   -8.3352 O   0  0  0  0  0  0  0  0  0  0  0  0
    0.8297   -3.9260   -9.7469 C   0  0  0  0  0  0  0  0  0  0  0  0
    1.8495   -3.1869    2.7383 H   0  0  0  0  0  0  0  0  0  0  0  0
    3.2652   -3.2026    1.6595 H   0  0  0  0  0  0  0  0  0  0  0  0
    2.9460   -1.7857    2.6884 H   0  0  0  0  0  0  0  0  0  0  0  0
    1.9474   -3.6070   -0.3400 H   0  0  0  0  0  0  0  0  0  0  0  0
   -0.4685   -0.3984   -1.8067 H   0  0  0  0  0  0  0  0  0  0  0  0
   -0.1632    0.8019    0.3196 H   0  0  0  0  0  0  0  0  0  0  0  0
    0.9528    1.8763    1.7199 H   0  0  0  0  0  0  0  0  0  0  0  0
   -0.4980    1.0763    2.3708 H   0  0  0  0  0  0  0  0  0  0  0  0
    0.7892    1.6197    3.4736 H   0  0  0  0  0  0  0  0  0  0  0  0
    0.4626   -2.2663   -3.2465 H   0  0  0  0  0  0  0  0  0  0  0  0
    0.4652   -3.0470   -4.9123 H   0  0  0  0  0  0  0  0  0  0  0  0
    0.2518   -6.7315   -7.0665 H   0  0  0  0  0  0  0  0  0  0  0  0
    0.2629   -7.9872   -4.9571 H   0  0  0  0  0  0  0  0  0  0  0  0
   -0.4909   -8.6664   -0.2947 H   0  0  0  0  0  0  0  0  0  0  0  0
    0.3305  -10.1815   -0.7400 H   0  0  0  0  0  0  0  0  0  0  0  0
    1.2870   -8.7313   -0.3523 H   0  0  0  0  0  0  0  0  0  0  0  0
   -0.0762   -3.2347   -7.3773 H   0  0  0  0  0  0  0  0  0  0  0  0
    0.2457   -3.0135   -9.6271 H   0  0  0  0  0  0  0  0  0  0  0  0
    1.8275   -3.6742  -10.1062 H   0  0  0  0  0  0  0  0  0  0  0  0
    0.3384   -4.5798  -10.4675 H   0  0  0  0  0  0  0  0  0  0  0  0
  1  2  1  0  0  0  0
  1 28  1  0  0  0  0
  1 29  1  0  0  0  0
  1 30  1  0  0  0  0
  2  7  2  0  0  0  0
  2  3  1  0  0  0  0
  3  4  2  0  0  0  0
  3 31  1  0  0  0  0
  4  5  1  0  0  0  0
  4 10  1  0  0  0  0
  5  6  2  0  0  0  0
  5 32  1  0  0  0  0
  6  7  1  0  0  0  0
  6 33  1  0  0  0  0
  7  8  1  0  0  0  0
  8  9  1  0  0  0  0
  9 34  1  0  0  0  0
  9 35  1  0  0  0  0
  9 36  1  0  0  0  0
 10 11  1  0  0  0  0
 10 37  1  0  0  0  0
 11 12  2  0  0  0  0
 11 13  1  0  0  0  0
 13 18  2  0  0  0  0
 13 14  1  0  0  0  0
 14 15  2  0  0  0  0
 14 38  1  0  0  0  0
 15 16  1  0  0  0  0
 15 24  1  0  0  0  0
 16 17  2  0  0  0  0
 16 39  1  0  0  0  0
 17 18  1  0  0  0  0
 17 40  1  0  0  0  0
 18 19  1  0  0  0  0
 19 20  1  0  0  0  0
 20 21  2  0  0  0  0
 20 22  2  0  0  0  0
 20 23  1  0  0  0  0
 23 41  1  0  0  0  0
 23 42  1  0  0  0  0
 23 43  1  0  0  0  0
 24 25  1  0  0  0  0
 24 44  1  0  0  0  0
 25 26  2  0  0  0  0
 25 27  1  0  0  0  0
 27 45  1  0  0  0  0
 27 46  1  0  0  0  0
 27 47  1  0  0  0  0
M  END
$$$$
ZINC54294067
 OpenBabel01252620473D

 34 35  0  0  1  0  0  0  0  0999 V2000
   -0.1784    1.4107    0.7616 C   0  0  0  0  0  0  0  0  0  0  0  0
   -0.0738   -0.0487    0.4009 C   0  0  0  0  0  0  0  0  0  0  0  0
   -0.9333   -0.7862   -0.3448 C   0  0  0  0  0  0  0  0  0  0  0  0
   -0.6582   -2.1149   -0.5627 C   0  0  0  0  0  0  0  0  0  0  0  0
    0.5074   -2.5916    0.0177 C   0  0  0  0  0  0  0  0  0  0  0  0
    1.1380   -1.1324    0.8245 S   0  0  0  0  0  0  0  0  0  0  0  0
    1.0757   -3.9421   -0.0255 C   0  0  0  0  0  0  0  0  0  0  0  0
    0.3439   -4.9125    0.0369 O   0  0  0  0  0  0  0  0  0  0  0  0
    2.4086   -4.1091   -0.1343 N   0  0  0  0  0  0  0  0  0  0  0  0
    3.3114   -2.9499   -0.1274 C   0  0  0  0  0  0  0  0  0  0  0  0
    4.2050   -3.0135   -1.3700 C   0  0  0  0  0  0  0  0  0  0  0  0
    4.9195   -4.3663   -1.4110 C   0  0  0  0  0  0  0  0  0  0  0  0
    3.8839   -5.4894   -1.5028 C   0  0  2  0  0  0  0  0  0  0  0  0
    3.2750   -5.3506   -2.3961 H   0  0  0  0  0  0  0  0  0  0  0  0
    2.9870   -5.4542   -0.2561 C   0  0  0  0  0  0  0  0  0  0  0  0
    4.6000   -6.8394   -1.5776 C   0  0  0  0  0  0  0  0  0  0  0  0
    3.5868   -7.9343   -1.7914 C   0  0  0  0  0  0  0  0  0  0  0  0
    2.4018   -7.6602   -1.8760 O   0  0  0  0  0  0  0  0  0  0  0  0
    3.9521   -9.0941   -1.8796 O   0  0  0  0  0  1  0  0  0  0  0  0
    0.6802    1.6973    1.3689 H   0  0  0  0  0  0  0  0  0  0  0  0
   -0.1955    2.0097   -0.1489 H   0  0  0  0  0  0  0  0  0  0  0  0
   -1.0954    1.5808    1.3257 H   0  0  0  0  0  0  0  0  0  0  0  0
   -1.8220   -0.3356   -0.7615 H   0  0  0  0  0  0  0  0  0  0  0  0
   -1.3086   -2.7476   -1.1483 H   0  0  0  0  0  0  0  0  0  0  0  0
    2.7258   -2.0307   -0.1450 H   0  0  0  0  0  0  0  0  0  0  0  0
    3.9303   -2.9742    0.7695 H   0  0  0  0  0  0  0  0  0  0  0  0
    3.5930   -2.8980   -2.2645 H   0  0  0  0  0  0  0  0  0  0  0  0
    4.9437   -2.2130   -1.3281 H   0  0  0  0  0  0  0  0  0  0  0  0
    5.5749   -4.4046   -2.2811 H   0  0  0  0  0  0  0  0  0  0  0  0
    5.5118   -4.4917   -0.5046 H   0  0  0  0  0  0  0  0  0  0  0  0
    3.5801   -5.6786    0.6305 H   0  0  0  0  0  0  0  0  0  0  0  0
    2.1874   -6.1879   -0.3586 H   0  0  0  0  0  0  0  0  0  0  0  0
    5.3061   -6.8306   -2.4080 H   0  0  0  0  0  0  0  0  0  0  0  0
    5.1369   -7.0180   -0.6460 H   0  0  0  0  0  0  0  0  0  0  0  0
  1  2  1  0  0  0  0
  1 20  1  0  0  0  0
  1 21  1  0  0  0  0
  1 22  1  0  0  0  0
  2  6  1  0  0  0  0
  2  3  2  0  0  0  0
  3  4  1  0  0  0  0
  3 23  1  0  0  0  0
  4  5  2  0  0  0  0
  4 24  1  0  0  0  0
  5  6  1  0  0  0  0
  5  7  1  0  0  0  0
  7  8  2  0  0  0  0
  7  9  1  0  0  0  0
  9 15  1  0  0  0  0
  9 10  1  0  0  0  0
 10 11  1  0  0  0  0
 10 25  1  0  0  0  0
 10 26  1  0  0  0  0
 11 12  1  0  0  0  0
 11 27  1  0  0  0  0
 11 28  1  0  0  0  0
 12 13  1  0  0  0  0
 12 29  1  0  0  0  0
 12 30  1  0  0  0  0
 13 14  1  6  0  0  0
 13 15  1  0  0  0  0
 13 16  1  0  0  0  0
 15 31  1  0  0  0  0
 15 32  1  0  0  0  0
 16 17  1  0  0  0  0
 16 33  1  0  0  0  0
 16 34  1  0  0  0  0
 17 18  2  0  0  0  0
 17 19  1  0  0  0  0
M  END
$$$$
ZINC39972672
 OpenBabel01252620473D

 51 53  0  0  0  0  0  0  0  0999 V2000
   -0.0184    1.5028    0.0103 C   0  0  0  0  0  0  0  0  0  0  0  0
    0.0021   -0.0041    0.0020 C   0  0  0  0  0  0  0  0  0  0  0  0
    0.0061   -0.7300   -1.1821 C   0  0  0  0  0  0  0  0  0  0  0  0
    0.0318   -2.3979   -0.5444 S   0  0  0  0  0  0  0  0  0  0  0  0
    0.0348   -2.0207    1.0957 C   0  0  0  0  0  0  0  0  0  0  0  0
    0.0225   -0.7000    1.1100 N   0  0  0  0  0  0  0  0  0  0  0  0
    0.0519   -2.8882    2.1736 N   0  0  0  0  0  0  0  0  0  0  0  0
    0.0694   -4.2199    1.9666 C   0  0  0  0  0  0  0  0  0  0  0  0
    0.0702   -4.6577    0.8357 O   0  0  0  0  0  0  0  0  0  0  0  0
    0.0880   -5.1648    3.1404 C   0  0  0  0  0  0  0  0  0  0  0  0
    0.1090   -6.8760    2.5389 S   0  0  0  0  0  0  0  0  0  0  0  0
    0.1293   -7.8449    4.0105 C   0  0  0  0  0  0  0  0  0  0  0  0
    0.1230   -7.3926    5.2430 N   0  0  0  0  0  0  0  0  0  0  0  0
    0.1426   -8.3769    6.0692 N   0  0  0  0  0  0  0  0  0  0  0  0
    0.1623   -9.5061    5.4195 C   0  0  0  0  0  0  0  0  0  0  0  0
    0.1485   -9.2081    4.0848 N   0  0  0  0  0  0  0  0  0  0  0  0
    0.1565  -10.1549    2.9669 C   0  0  0  0  0  0  0  0  0  0  0  0
    0.1887  -10.8853    6.0263 C   0  0  0  0  0  0  0  0  0  0  0  0
   -1.1500  -11.3463    6.2198 O   0  0  0  0  0  0  0  0  0  0  0  0
   -1.3044  -12.5826    6.7626 C   0  0  0  0  0  0  0  0  0  0  0  0
   -0.1902  -13.3343    7.1072 C   0  0  0  0  0  0  0  0  0  0  0  0
   -0.3498  -14.5904    7.6591 C   0  0  0  0  0  0  0  0  0  0  0  0
   -1.6187  -15.0989    7.8683 C   0  0  0  0  0  0  0  0  0  0  0  0
   -2.7303  -14.3521    7.5253 C   0  0  0  0  0  0  0  0  0  0  0  0
   -2.5761  -13.0928    6.9782 C   0  0  0  0  0  0  0  0  0  0  0  0
   -4.1116  -14.9095    7.7541 C   0  0  0  0  0  0  0  0  0  0  0  0
   -4.0119  -16.1859    8.3182 F   0  0  0  0  0  0  0  0  0  0  0  0
   -4.8155  -14.0692    8.6235 F   0  0  0  0  0  0  0  0  0  0  0  0
   -4.7898  -14.9909    6.5332 F   0  0  0  0  0  0  0  0  0  0  0  0
   -0.0076   -0.2596   -2.5656 C   0  0  0  0  0  0  0  0  0  0  0  0
   -0.0253    0.9337   -2.8022 O   0  0  0  0  0  0  0  0  0  0  0  0
   -0.0004   -1.1487   -3.5806 O   0  0  0  0  0  0  0  0  0  0  0  0
   -0.0146   -0.6185   -4.9075 C   0  0  0  0  0  0  0  0  0  0  0  0
    1.0042    1.8801    0.0026 H   0  0  0  0  0  0  0  0  0  0  0  0
   -0.5455    1.8639   -0.8728 H   0  0  0  0  0  0  0  0  0  0  0  0
   -0.5286    1.8543    0.9071 H   0  0  0  0  0  0  0  0  0  0  0  0
    0.0513   -2.5380    3.0781 H   0  0  0  0  0  0  0  0  0  0  0  0
    0.9783   -4.9800    3.7415 H   0  0  0  0  0  0  0  0  0  0  0  0
   -0.8014   -5.0047    3.7498 H   0  0  0  0  0  0  0  0  0  0  0  0
    1.1860  -10.3758    2.6851 H   0  0  0  0  0  0  0  0  0  0  0  0
   -0.3436  -11.0757    3.2670 H   0  0  0  0  0  0  0  0  0  0  0  0
   -0.3670   -9.7176    2.1167 H   0  0  0  0  0  0  0  0  0  0  0  0
    0.7144  -11.5666    5.3573 H   0  0  0  0  0  0  0  0  0  0  0  0
    0.7032  -10.8499    6.9865 H   0  0  0  0  0  0  0  0  0  0  0  0
    0.8010  -12.9378    6.9438 H   0  0  0  0  0  0  0  0  0  0  0  0
    0.5171  -15.1760    7.9272 H   0  0  0  0  0  0  0  0  0  0  0  0
   -1.7414  -16.0813    8.2999 H   0  0  0  0  0  0  0  0  0  0  0  0
   -3.4449  -12.5079    6.7146 H   0  0  0  0  0  0  0  0  0  0  0  0
   -0.9137   -0.0190   -5.0497 H   0  0  0  0  0  0  0  0  0  0  0  0
    0.8661    0.0057   -5.0588 H   0  0  0  0  0  0  0  0  0  0  0  0
   -0.0069   -1.4379   -5.6263 H   0  0  0  0  0  0  0  0  0  0  0  0
  1  2  1  0  0  0  0
  1 34  1  0  0  0  0
  1 35  1  0  0  0  0
  1 36  1  0  0  0  0
  2  6  1  0  0  0  0
  2  3  2  0  0  0  0
  3  4  1  0  0  0  0
  3 30  1  0  0  0  0
  4  5  1  0  0  0  0
  5  6  2  0  0  0  0
  5  7  1  0  0  0  0
  7  8  1  0  0  0  0
  7 37  1  0  0  0  0
  8  9  2  0  0  0  0
  8 10  1  0  0  0  0
 10 11  1  0  0  0  0
 10 38  1  0  0  0  0
 10 39  1  0  0  0  0
 11 12  1  0  0  0  0
 12 16  1  0  0  0  0
 12 13  2  0  0  0  0
 13 14  1  0  0  0  0
 14 15  2  0  0  0  0
 15 16  1  0  0  0  0
 15 18  1  0  0  0  0
 16 17  1  0  0  0  0
 17 40  1  0  0  0  0
 17 41  1  0  0  0  0
 17 42  1  0  0  0  0
 18 19  1  0  0  0  0
 18 43  1  0  0  0  0
 18 44  1  0  0  0  0
 19 20  1  0  0  0  0
 20 25  2  0  0  0  0
 20 21  1  0  0  0  0
 21 22  2  0  0  0  0
 21 45  1  0  0  0  0
 22 23  1  0  0  0  0
 22 46  1  0  0  0  0
 23 24  2  0  0  0  0
 23 47  1  0  0  0  0
 24 25  1  0  0  0  0
 24 26  1  0  0  0  0
 25 48  1  0  0  0  0
 26 27  1  0  0  0  0
 26 28  1  0  0  0  0
 26 29  1  0  0  0  0
 30 31  2  0  0  0  0
 30 32  1  0  0  0  0
 32 33  1  0  0  0  0
 33 49  1  0  0  0  0
 33 50  1  0  0  0  0
 33 51  1  0  0  0  0
M  END
$$$$
ZINC62322286
 OpenBabel01252620473D

 40 42  0  0  0  0  0  0  0  0999 V2000
   -0.3508    1.4959    0.0631 C   0  0  0  0  0  0  0  0  0  0  0  0
   -0.2786   -0.0116    0.0459 C   0  0  0  0  0  0  0  0  0  0  0  0
   -0.5127   -0.5547   -1.1963 C   0  0  0  0  0  0  0  0  0  0  0  0
   -0.4901   -1.9320   -1.4153 C   0  0  0  0  0  0  0  0  0  0  0  0
   -0.2241   -2.7720   -0.3424 C   0  0  0  0  0  0  0  0  0  0  0  0
    0.0139   -2.2256    0.9199 C   0  0  0  0  0  0  0  0  0  0  0  0
   -0.0063   -0.8189    1.1440 C   0  0  0  0  0  0  0  0  0  0  0  0
    0.2469   -0.3962    2.4242 N   0  0  0  0  0  0  0  0  0  0  0  0
    0.5013   -1.2675    3.4319 C   0  0  0  0  0  0  0  0  0  0  0  0
    0.7162   -0.8059    4.5415 O   0  0  0  0  0  0  0  0  0  0  0  0
    0.5261   -2.6598    3.2509 C   0  0  0  0  0  0  0  0  0  0  0  0
    0.2886   -3.1574    2.0178 C   0  0  0  0  0  0  0  0  0  0  0  0
    0.2785    1.0021    2.8663 C   0  0  0  0  0  0  0  0  0  0  0  0
   -1.1073    1.4315    3.2740 C   0  0  0  0  0  0  0  0  0  0  0  0
   -2.0304    0.6481    3.2027 O   0  0  0  0  0  0  0  0  0  0  0  0
   -1.3209    2.6860    3.7178 N   0  0  0  0  0  0  0  0  0  0  0  0
   -0.2985    3.7346    3.8480 C   0  0  0  0  0  0  0  0  0  0  0  0
   -0.9971    4.9876    4.4167 C   0  0  0  0  0  0  0  0  0  0  0  0
   -2.2569    4.4003    5.1063 C   0  0  0  0  0  0  0  0  0  0  0  0
   -2.6195    3.2361    4.1472 C   0  0  0  0  0  0  0  0  0  0  0  0
   -0.7423   -2.4863   -2.7557 C   0  0  0  0  0  0  0  0  0  0  0  0
   -0.9752   -1.7365   -3.6937 O   0  0  0  0  0  0  0  0  0  0  0  0
   -0.7190   -3.6966   -2.9313 O   0  0  0  0  0  1  0  0  0  0  0  0
    0.6531    1.9088   -0.0359 H   0  0  0  0  0  0  0  0  0  0  0  0
   -0.9685    1.8396   -0.7666 H   0  0  0  0  0  0  0  0  0  0  0  0
   -0.7890    1.8279    1.0043 H   0  0  0  0  0  0  0  0  0  0  0  0
   -0.7185    0.1187   -2.0181 H   0  0  0  0  0  0  0  0  0  0  0  0
   -0.2008   -3.8446   -0.4790 H   0  0  0  0  0  0  0  0  0  0  0  0
    0.7310   -3.3205    4.0789 H   0  0  0  0  0  0  0  0  0  0  0  0
    0.3000   -4.2242    1.8393 H   0  0  0  0  0  0  0  0  0  0  0  0
    0.9538    1.0992    3.7165 H   0  0  0  0  0  0  0  0  0  0  0  0
    0.6291    1.6336    2.0499 H   0  0  0  0  0  0  0  0  0  0  0  0
    0.4853    3.4054    4.5301 H   0  0  0  0  0  0  0  0  0  0  0  0
    0.1282    3.9596    2.8705 H   0  0  0  0  0  0  0  0  0  0  0  0
   -0.3580    5.4890    5.1435 H   0  0  0  0  0  0  0  0  0  0  0  0
   -1.2792    5.6694    3.6144 H   0  0  0  0  0  0  0  0  0  0  0  0
   -2.0195    4.0298    6.1035 H   0  0  0  0  0  0  0  0  0  0  0  0
   -3.0598    5.1364    5.1455 H   0  0  0  0  0  0  0  0  0  0  0  0
   -3.1764    3.6091    3.2876 H   0  0  0  0  0  0  0  0  0  0  0  0
   -3.1975    2.4770    4.6743 H   0  0  0  0  0  0  0  0  0  0  0  0
  1  2  1  0  0  0  0
  1 24  1  0  0  0  0
  1 25  1  0  0  0  0
  1 26  1  0  0  0  0
  2  7  2  0  0  0  0
  2  3  1  0  0  0  0
  3  4  2  0  0  0  0
  3 27  1  0  0  0  0
  4  5  1  0  0  0  0
  4 21  1  0  0  0  0
  5  6  2  0  0  0  0
  5 28  1  0  0  0  0
  6 12  1  0  0  0  0
  6  7  1  0  0  0  0
  7  8  1  0  0  0  0
  8  9  1  0  0  0  0
  8 13  1  0  0  0  0
  9 10  2  0  0  0  0
  9 11  1  0  0  0  0
 11 12  2  0  0  0  0
 11 29  1  0  0  0  0
 12 30  1  0  0  0  0
 13 14  1  0  0  0  0
 13 31  1  0  0  0  0
 13 32  1  0  0  0  0
 14 15  2  0  0  0  0
 14 16  1  0  0  0  0
 16 20  1  0  0  0  0
 16 17  1  0  0  0  0
 17 18  1  0  0  0  0
 17 33  1  0  0  0  0
 17 34  1  0  0  0  0
 18 19  1  0  0  0  0
 18 35  1  0  0  0  0
 18 36  1  0  0  0  0
 19 20  1  0  0  0  0
 19 37  1  0  0  0  0
 19 38  1  0  0  0  0
 20 39  1  0  0  0  0
 20 40  1  0  0  0  0
 21 22  2  0  0  0  0
 21 23  1  0  0  0  0
M  END
$$$$
ZINC13687779
 OpenBabel01252620473D

 58 61  0  0  1  0  0  0  0  0999 V2000
   -3.0861    2.2047    2.0695 C   0  0  0  0  0  0  0  0  0  0  0  0
   -2.9121    0.8850    2.7760 C   0  0  0  0  0  0  0  0  0  0  0  0
   -2.2781   -0.2350    2.2728 C   0  0  0  0  0  0  0  0  0  0  0  0
   -2.3433   -1.2340    3.2703 C   0  0  0  0  0  0  0  0  0  0  0  0
   -2.9750   -0.7378    4.2979 N   0  0  0  0  0  0  0  0  0  0  0  0
   -3.3394    0.5827    4.0125 N   0  0  0  0  0  0  0  0  0  0  0  0
   -3.8775    1.3351    4.6077 H   0  0  0  0  0  0  0  0  0  0  0  0
   -1.7817   -2.6285    3.1649 C   0  0  0  0  0  0  0  0  0  0  0  0
   -1.6508   -0.3636    0.9442 C   0  0  0  0  0  0  0  0  0  0  0  0
   -1.6354    0.5867    0.1840 O   0  0  0  0  0  0  0  0  0  0  0  0
   -1.0452   -1.6370    0.5391 C   0  0  0  0  0  0  0  0  0  0  0  0
   -1.6584   -2.6499   -0.1148 C   0  0  0  0  0  0  0  0  0  0  0  0
   -0.6907   -3.7462   -0.3291 C   0  0  0  0  0  0  0  0  0  0  0  0
   -0.9387   -4.7958   -0.8887 O   0  0  0  0  0  0  0  0  0  0  0  0
    0.5052   -3.4105    0.1879 N   0  0  0  0  0  0  0  0  0  0  0  0
    0.3853   -2.0669    0.7660 C   0  0  1  0  0  0  0  0  0  0  0  0
    0.6478   -2.0934    1.8339 H   0  0  0  0  0  0  0  0  0  0  0  0
    1.3281   -1.1160    0.0745 C   0  0  0  0  0  0  0  0  0  0  0  0
    2.0921   -0.2367    0.8185 C   0  0  0  0  0  0  0  0  0  0  0  0
    2.9611    0.6316    0.1848 C   0  0  0  0  0  0  0  0  0  0  0  0
    3.0587    0.6295   -1.1944 C   0  0  0  0  0  0  0  0  0  0  0  0
    2.2917   -0.2447   -1.9406 C   0  0  0  0  0  0  0  0  0  0  0  0
    1.4250   -1.1190   -1.3065 C   0  0  0  0  0  0  0  0  0  0  0  0
    0.6749   -1.9744   -2.0350 F   0  0  0  0  0  0  0  0  0  0  0  0
    1.7145   -4.2373    0.1713 C   0  0  0  0  0  0  0  0  0  0  0  0
    2.4658   -4.0158   -1.1430 C   0  0  0  0  0  0  0  0  0  0  0  0
    3.6484   -4.9832   -1.2237 C   0  0  0  0  0  0  0  0  0  0  0  0
    4.3697   -4.7705   -2.4856 N   0  0  0  0  0  0  0  0  0  0  0  0
    3.5383   -5.1481   -3.6378 C   0  0  0  0  0  0  0  0  0  0  0  0
    4.3042   -4.8552   -4.9307 C   0  0  0  0  0  0  0  0  0  0  0  0
    5.5507   -5.5560   -4.9097 O   0  0  0  0  0  0  0  0  0  0  0  0
    6.3859   -5.2121   -3.8009 C   0  0  0  0  0  0  0  0  0  0  0  0
    5.6412   -5.5085   -2.4966 C   0  0  0  0  0  0  0  0  0  0  0  0
   -2.9527   -2.6584   -0.5094 O   0  5  0  0  0  0  0  0  0  0  0  0
   -2.6309    2.1482    1.0697 H   0  0  0  0  0  0  0  0  0  0  0  0
   -2.5960    2.9994    2.6511 H   0  0  0  0  0  0  0  0  0  0  0  0
   -4.1584    2.4298    1.9720 H   0  0  0  0  0  0  0  0  0  0  0  0
   -1.9848   -3.1769    4.0965 H   0  0  0  0  0  0  0  0  0  0  0  0
   -0.6954   -2.5748    3.0004 H   0  0  0  0  0  0  0  0  0  0  0  0
   -2.2550   -3.1515    2.3208 H   0  0  0  0  0  0  0  0  0  0  0  0
    2.0134   -0.2312    1.8956 H   0  0  0  0  0  0  0  0  0  0  0  0
    3.5607    1.3154    0.7672 H   0  0  0  0  0  0  0  0  0  0  0  0
    3.7345    1.3117   -1.6887 H   0  0  0  0  0  0  0  0  0  0  0  0
    2.3679   -0.2458   -3.0179 H   0  0  0  0  0  0  0  0  0  0  0  0
    2.3618   -3.9571    1.0154 H   0  0  0  0  0  0  0  0  0  0  0  0
    1.4351   -5.2975    0.2597 H   0  0  0  0  0  0  0  0  0  0  0  0
    1.7861   -4.1963   -1.9888 H   0  0  0  0  0  0  0  0  0  0  0  0
    2.8354   -2.9806   -1.1841 H   0  0  0  0  0  0  0  0  0  0  0  0
    4.3281   -4.8027   -0.3779 H   0  0  0  0  0  0  0  0  0  0  0  0
    3.2788   -6.0184   -1.1826 H   0  0  0  0  0  0  0  0  0  0  0  0
    3.3027   -6.2212   -3.5840 H   0  0  0  0  0  0  0  0  0  0  0  0
    2.6047   -4.5666   -3.6226 H   0  0  0  0  0  0  0  0  0  0  0  0
    3.7085   -5.1885   -5.7933 H   0  0  0  0  0  0  0  0  0  0  0  0
    4.4905   -3.7740   -5.0096 H   0  0  0  0  0  0  0  0  0  0  0  0
    7.3108   -5.8062   -3.8404 H   0  0  0  0  0  0  0  0  0  0  0  0
    6.6354   -4.1418   -3.8478 H   0  0  0  0  0  0  0  0  0  0  0  0
    6.2561   -5.1923   -1.6411 H   0  0  0  0  0  0  0  0  0  0  0  0
    5.4396   -6.5874   -2.4243 H   0  0  0  0  0  0  0  0  0  0  0  0
  1  2  1  0  0  0  0
  1 35  1  0  0  0  0
  1 36  1  0  0  0  0
  1 37  1  0  0  0  0
  2  6  1  0  0  0  0
  2  3  2  0  0  0  0
  3  4  1  0  0  0  0
  3  9  1  0  0  0  0
  4  5  2  0  0  0  0
  4  8  1  0  0  0  0
  5  6  1  0  0  0  0
  6  7  1  0  0  0  0
  8 38  1  0  0  0  0
  8 39  1  0  0  0  0
  8 40  1  0  0  0  0
  9 10  2  0  0  0  0
  9 11  1  0  0  0  0
 11 16  1  0  0  0  0
 11 12  2  0  0  0  0
 12 13  1  0  0  0  0
 12 34  1  0  0  0  0
 13 14  2  0  0  0  0
 13 15  1  0  0  0  0
 15 16  1  0  0  0  0
 15 25  1  0  0  0  0
 16 17  1  1  0  0  0
 16 18  1  0  0  0  0
 18 23  2  0  0  0  0
 18 19  1  0  0  0  0
 19 20  2  0  0  0  0
 19 41  1  0  0  0  0
 20 21  1  0  0  0  0
 20 42  1  0  0  0  0
 21 22  2  0  0  0  0
 21 43  1  0  0  0  0
 22 23  1  0  0  0  0
 22 44  1  0  0  0  0
 23 24  1  0  0  0  0
 25 26  1  0  0  0  0
 25 45  1  0  0  0  0
 25 46  1  0  0  0  0
 26 27  1  0  0  0  0
 26 47  1  0  0  0  0
 26 48  1  0  0  0  0
 27 28  1  0  0  0  0
 27 49  1  0  0  0  0
 27 50  1  0  0  0  0
 28 33  1  0  0  0  0
 28 29  1  0  0  0  0
 29 30  1  0  0  0  0
 29 51  1  0  0  0  0
 29 52  1  0  0  0  0
 30 31  1  0  0  0  0
 30 53  1  0  0  0  0
 30 54  1  0  0  0  0
 31 32  1  0  0  0  0
 32 33  1  0  0  0  0
 32 55  1  0  0  0  0
 32 56  1  0  0  0  0
 33 57  1  0  0  0  0
 33 58  1  0  0  0  0
M  CHG  1  34  -1
M  END
$$$$
ZINC41919798
 OpenBabel01252620473D

 33 35  0  0  0  0  0  0  0  0999 V2000
   -0.0184    1.5028    0.0103 C   0  0  0  0  0  0  0  0  0  0  0  0
    0.0021   -0.0041    0.0020 C   0  0  0  0  0  0  0  0  0  0  0  0
    0.0080   -0.7723   -1.0866 N   0  0  0  0  0  0  0  0  0  0  0  0
    0.0266   -2.0336   -0.7396 C   0  0  0  0  0  0  0  0  0  0  0  0
    0.0330   -2.0968    0.6032 N   0  0  0  0  0  0  0  0  0  0  0  0
    0.0225   -0.7692    1.0616 N   0  0  0  0  0  0  0  0  0  0  0  0
    0.0528   -3.3093    1.4252 C   0  0  0  0  0  0  0  0  0  0  0  0
   -1.2655   -4.0973    1.2724 C   0  0  0  0  0  0  0  0  0  0  0  0
   -1.5337   -4.6896    2.6394 C   0  0  0  0  0  0  0  0  0  0  0  0
   -2.3747   -5.7216    3.0210 C   0  0  0  0  0  0  0  0  0  0  0  0
   -2.4577   -6.0960    4.3477 C   0  0  0  0  0  0  0  0  0  0  0  0
   -1.6992   -5.4390    5.2987 C   0  0  0  0  0  0  0  0  0  0  0  0
   -0.8600   -4.4096    4.9201 C   0  0  0  0  0  0  0  0  0  0  0  0
   -0.7754   -4.0327    3.5901 C   0  0  0  0  0  0  0  0  0  0  0  0
    0.0542   -2.9540    2.9272 C   0  0  0  0  0  0  0  0  0  0  0  0
    1.2397   -4.1702    1.0772 C   0  0  0  0  0  0  0  0  0  0  0  0
    2.0264   -3.8063    0.2197 O   0  0  0  0  0  0  0  0  0  0  0  0
    1.4134   -5.2307    1.6532 O   0  0  0  0  0  1  0  0  0  0  0  0
    0.0382   -3.2104   -1.6809 C   0  0  0  0  0  0  0  0  0  0  0  0
    1.0042    1.8801    0.0026 H   0  0  0  0  0  0  0  0  0  0  0  0
   -0.5455    1.8639   -0.8728 H   0  0  0  0  0  0  0  0  0  0  0  0
   -0.5286    1.8543    0.9071 H   0  0  0  0  0  0  0  0  0  0  0  0
   -2.0757   -3.4270    0.9851 H   0  0  0  0  0  0  0  0  0  0  0  0
   -1.1491   -4.8897    0.5331 H   0  0  0  0  0  0  0  0  0  0  0  0
   -2.9678   -6.2351    2.2787 H   0  0  0  0  0  0  0  0  0  0  0  0
   -3.1148   -6.9010    4.6421 H   0  0  0  0  0  0  0  0  0  0  0  0
   -1.7632   -5.7303    6.3368 H   0  0  0  0  0  0  0  0  0  0  0  0
   -0.2678   -3.8969    5.6636 H   0  0  0  0  0  0  0  0  0  0  0  0
    1.0718   -2.9659    3.3177 H   0  0  0  0  0  0  0  0  0  0  0  0
   -0.4009   -1.9763    3.0850 H   0  0  0  0  0  0  0  0  0  0  0  0
    1.0686   -3.4805   -1.9121 H   0  0  0  0  0  0  0  0  0  0  0  0
   -0.4625   -4.0568   -1.2107 H   0  0  0  0  0  0  0  0  0  0  0  0
   -0.4830   -2.9451   -2.6007 H   0  0  0  0  0  0  0  0  0  0  0  0
  1  2  1  0  0  0  0
  1 20  1  0  0  0  0
  1 21  1  0  0  0  0
  1 22  1  0  0  0  0
  2  6  2  0  0  0  0
  2  3  1  0  0  0  0
  3  4  2  0  0  0  0
  4  5  1  0  0  0  0
  4 19  1  0  0  0  0
  5  6  1  0  0  0  0
  5  7  1  0  0  0  0
  7 15  1  0  0  0  0
  7  8  1  0  0  0  0
  7 16  1  0  0  0  0
  8  9  1  0  0  0  0
  8 23  1  0  0  0  0
  8 24  1  0  0  0  0
  9 14  2  0  0  0  0
  9 10  1  0  0  0  0
 10 11  2  0  0  0  0
 10 25  1  0  0  0  0
 11 12  1  0  0  0  0
 11 26  1  0  0  0  0
 12 13  2  0  0  0  0
 12 27  1  0  0  0  0
 13 14  1  0  0  0  0
 13 28  1  0  0  0  0
 14 15  1  0  0  0  0
 15 29  1  0  0  0  0
 15 30  1  0  0  0  0
 16 17  2  0  0  0  0
 16 18  1  0  0  0  0
 19 31  1  0  0  0  0
 19 32  1  0  0  0  0
 19 33  1  0  0  0  0
M  END
$$$$
ZINC48519891
 OpenBabel01252620473D

 33 34  0  0  0  0  0  0  0  0999 V2000
   -0.0173    1.4248    0.0099 C   0  0  0  0  0  0  0  0  0  0  0  0
    0.0021   -0.0041    0.0020 O   0  0  0  0  0  0  0  0  0  0  0  0
    0.6734   -0.5824    1.1231 C   0  0  0  0  0  0  0  0  0  0  0  0
    0.6333   -2.0848    1.0124 C   0  0  0  0  0  0  0  0  0  0  0  0
    1.2085   -2.8471    1.9655 O   0  5  0  0  0  0  0  0  0  0  0  0
    0.0488   -2.6422    0.0060 N   0  0  0  0  0  0  0  0  0  0  0  0
    0.0047   -4.2931   -0.1157 S   0  0  0  0  0  0  0  0  0  0  0  0
    1.3460   -4.7223   -0.3057 O   0  0  0  0  0  0  0  0  0  0  0  0
   -0.7988   -4.7584    0.9600 O   0  0  0  0  0  0  0  0  0  0  0  0
   -0.8637   -4.6832   -1.5984 C   0  0  0  0  0  0  0  0  0  0  0  0
   -2.2366   -4.8477   -1.5709 C   0  0  0  0  0  0  0  0  0  0  0  0
   -2.9208   -5.1533   -2.7310 C   0  0  0  0  0  0  0  0  0  0  0  0
   -2.2279   -5.2951   -3.9261 C   0  0  0  0  0  0  0  0  0  0  0  0
   -0.8496   -5.1290   -3.9502 C   0  0  0  0  0  0  0  0  0  0  0  0
   -0.1717   -4.8186   -2.7878 C   0  0  0  0  0  0  0  0  0  0  0  0
   -0.0985   -5.2822   -5.2471 C   0  0  0  0  0  0  0  0  0  0  0  0
   -0.7730   -6.3533   -6.1050 C   0  0  0  0  0  0  0  0  0  0  0  0
   -2.2555   -6.1017   -6.1670 C   0  0  0  0  0  0  0  0  0  0  0  0
   -2.8635   -6.3506   -7.1864 O   0  0  0  0  0  0  0  0  0  0  0  0
   -2.9143   -5.6040   -5.1044 N   0  0  0  0  0  0  0  0  0  0  0  0
    1.0053    1.8021    0.0021 H   0  0  0  0  0  0  0  0  0  0  0  0
   -0.5445    1.7859   -0.8732 H   0  0  0  0  0  0  0  0  0  0  0  0
   -0.5275    1.7763    0.9067 H   0  0  0  0  0  0  0  0  0  0  0  0
    1.7103   -0.2468    1.1385 H   0  0  0  0  0  0  0  0  0  0  0  0
    0.1775   -0.2725    2.0430 H   0  0  0  0  0  0  0  0  0  0  0  0
   -2.7745   -4.7374   -0.6408 H   0  0  0  0  0  0  0  0  0  0  0  0
   -3.9928   -5.2821   -2.7088 H   0  0  0  0  0  0  0  0  0  0  0  0
    0.8999   -4.6856   -2.8071 H   0  0  0  0  0  0  0  0  0  0  0  0
   -0.1014   -4.3329   -5.7828 H   0  0  0  0  0  0  0  0  0  0  0  0
    0.9296   -5.5782   -5.0386 H   0  0  0  0  0  0  0  0  0  0  0  0
   -0.3584   -6.3241   -7.1126 H   0  0  0  0  0  0  0  0  0  0  0  0
   -0.5903   -7.3350   -5.6680 H   0  0  0  0  0  0  0  0  0  0  0  0
   -3.8720   -5.4589   -5.1561 H   0  0  0  0  0  0  0  0  0  0  0  0
  1  2  1  0  0  0  0
  1 21  1  0  0  0  0
  1 22  1  0  0  0  0
  1 23  1  0  0  0  0
  2  3  1  0  0  0  0
  3  4  1  0  0  0  0
  3 24  1  0  0  0  0
  3 25  1  0  0  0  0
  4  5  1  0  0  0  0
  4  6  2  0  0  0  0
  6  7  1  0  0  0  0
  7  8  2  0  0  0  0
  7  9  2  0  0  0  0
  7 10  1  0  0  0  0
 10 15  2  0  0  0  0
 10 11  1  0  0  0  0
 11 12  2  0  0  0  0
 11 26  1  0  0  0  0
 12 13  1  0  0  0  0
 12 27  1  0  0  0  0
 13 20  1  0  0  0  0
 13 14  2  0  0  0  0
 14 15  1  0  0  0  0
 14 16  1  0  0  0  0
 15 28  1  0  0  0  0
 16 17  1  0  0  0  0
 16 29  1  0  0  0  0
 16 30  1  0  0  0  0
 17 18  1  0  0  0  0
 17 31  1  0  0  0  0
 17 32  1  0  0  0  0
 18 19  2  0  0  0  0
 18 20  1  0  0  0  0
 20 33  1  0  0  0  0
M  CHG  1   5  -1
M  END
$$$$
ZINC59600023
 OpenBabel01252620473D

 50 52  0  0  0  0  0  0  0  0999 V2000
    0.3818    1.1918   -1.1433 C   0  0  0  0  0  0  0  0  0  0  0  0
   -0.1654   -0.2302   -1.0031 C   0  0  0  0  0  0  0  0  0  0  0  0
   -0.9252   -0.5650   -2.1661 O   0  0  0  0  0  0  0  0  0  0  0  0
   -1.4853   -1.8037   -2.2022 C   0  0  0  0  0  0  0  0  0  0  0  0
   -1.3113   -2.6710   -1.1413 C   0  0  0  0  0  0  0  0  0  0  0  0
   -1.8892   -3.9456   -1.1815 C   0  0  0  0  0  0  0  0  0  0  0  0
   -2.6406   -4.3341   -2.2973 C   0  0  0  0  0  0  0  0  0  0  0  0
   -2.8089   -3.4618   -3.3514 C   0  0  0  0  0  0  0  0  0  0  0  0
   -2.2393   -2.1952   -3.3071 C   0  0  0  0  0  0  0  0  0  0  0  0
   -2.4132   -1.3375   -4.3467 O   0  0  0  0  0  0  0  0  0  0  0  0
   -1.4458   -1.3869   -5.3973 C   0  0  0  0  0  0  0  0  0  0  0  0
   -1.7999   -0.3728   -6.4543 C   0  0  0  0  0  0  0  0  0  0  0  0
   -2.7891    0.3273   -6.3204 O   0  0  0  0  0  0  0  0  0  0  0  0
   -1.0973   -0.2525   -7.4434 O   0  0  0  0  0  1  0  0  0  0  0  0
   -3.7406   -3.9443   -4.7344 Cl  0  0  0  0  0  0  0  0  0  0  0  0
   -1.7074   -4.8725   -0.0570 C   0  0  0  0  0  0  0  0  0  0  0  0
   -1.5149   -6.1954   -0.2922 C   0  0  0  0  0  0  0  0  0  0  0  0
   -1.2878   -6.8955   -1.5708 C   0  0  0  0  0  0  0  0  0  0  0  0
   -1.2486   -6.2932   -2.6278 O   0  0  0  0  0  0  0  0  0  0  0  0
   -1.1282   -8.2070   -1.5164 N   0  0  0  0  0  0  0  0  0  0  0  0
   -1.1754   -8.8708   -0.3099 C   0  0  0  0  0  0  0  0  0  0  0  0
   -1.0381  -10.1572   -0.0791 N   0  0  0  0  0  0  0  0  0  0  0  0
   -0.7326  -11.0081   -1.1067 C   0  0  0  0  0  0  0  0  0  0  0  0
    0.6008  -11.2151   -1.4721 C   0  0  0  0  0  0  0  0  0  0  0  0
    0.9110  -12.0729   -2.5083 C   0  0  0  0  0  0  0  0  0  0  0  0
   -0.0915  -12.7324   -3.1913 C   0  0  0  0  0  0  0  0  0  0  0  0
   -1.4293  -12.5355   -2.8374 C   0  0  0  0  0  0  0  0  0  0  0  0
   -1.7499  -11.6747   -1.7877 C   0  0  0  0  0  0  0  0  0  0  0  0
   -2.4995  -13.2409   -3.5688 C   0  0  0  0  0  0  0  0  0  0  0  0
   -2.2164  -13.9988   -4.4858 O   0  0  0  0  0  0  0  0  0  0  0  0
   -3.6694  -13.0675   -3.2579 O   0  0  0  0  0  1  0  0  0  0  0  0
   -1.4607   -7.5565    0.8645 S   0  0  0  0  0  0  0  0  0  0  0  0
   -0.8994   -8.9617   -2.7510 C   0  0  0  0  0  0  0  0  0  0  0  0
    1.0211    1.2499   -2.0242 H   0  0  0  0  0  0  0  0  0  0  0  0
   -0.4474    1.8913   -1.2493 H   0  0  0  0  0  0  0  0  0  0  0  0
    0.9614    1.4472   -0.2562 H   0  0  0  0  0  0  0  0  0  0  0  0
    0.6638   -0.9297   -0.8971 H   0  0  0  0  0  0  0  0  0  0  0  0
   -0.8047   -0.2883   -0.1222 H   0  0  0  0  0  0  0  0  0  0  0  0
   -0.7305   -2.3668   -0.2831 H   0  0  0  0  0  0  0  0  0  0  0  0
   -3.0877   -5.3166   -2.3323 H   0  0  0  0  0  0  0  0  0  0  0  0
   -0.4589   -1.1611   -4.9933 H   0  0  0  0  0  0  0  0  0  0  0  0
   -1.4386   -2.3838   -5.8381 H   0  0  0  0  0  0  0  0  0  0  0  0
   -1.7269   -4.5015    0.9571 H   0  0  0  0  0  0  0  0  0  0  0  0
    1.3902  -10.7023   -0.9426 H   0  0  0  0  0  0  0  0  0  0  0  0
    1.9429  -12.2286   -2.7863 H   0  0  0  0  0  0  0  0  0  0  0  0
    0.1587  -13.4018   -4.0011 H   0  0  0  0  0  0  0  0  0  0  0  0
   -2.7815  -11.5218   -1.5071 H   0  0  0  0  0  0  0  0  0  0  0  0
   -0.9594   -8.2876   -3.6054 H   0  0  0  0  0  0  0  0  0  0  0  0
    0.0890   -9.4203   -2.7187 H   0  0  0  0  0  0  0  0  0  0  0  0
   -1.6575   -9.7389   -2.8475 H   0  0  0  0  0  0  0  0  0  0  0  0
  1  2  1  0  0  0  0
  1 34  1  0  0  0  0
  1 35  1  0  0  0  0
  1 36  1  0  0  0  0
  2  3  1  0  0  0  0
  2 37  1  0  0  0  0
  2 38  1  0  0  0  0
  3  4  1  0  0  0  0
  4  9  2  0  0  0  0
  4  5  1  0  0  0  0
  5  6  2  0  0  0  0
  5 39  1  0  0  0  0
  6  7  1  0  0  0  0
  6 16  1  0  0  0  0
  7  8  2  0  0  0  0
  7 40  1  0  0  0  0
  8  9  1  0  0  0  0
  8 15  1  0  0  0  0
  9 10  1  0  0  0  0
 10 11  1  0  0  0  0
 11 12  1  0  0  0  0
 11 41  1  0  0  0  0
 11 42  1  0  0  0  0
 12 13  2  0  0  0  0
 12 14  1  0  0  0  0
 16 17  2  0  0  0  0
 16 43  1  0  0  0  0
 17 32  1  0  0  0  0
 17 18  1  0  0  0  0
 18 19  2  0  0  0  0
 18 20  1  0  0  0  0
 20 21  1  0  0  0  0
 20 33  1  0  0  0  0
 21 22  2  0  0  0  0
 21 32  1  0  0  0  0
 22 23  1  0  0  0  0
 23 28  2  0  0  0  0
 23 24  1  0  0  0  0
 24 25  2  0  0  0  0
 24 44  1  0  0  0  0
 25 26  1  0  0  0  0
 25 45  1  0  0  0  0
 26 27  2  0  0  0  0
 26 46  1  0  0  0  0
 27 28  1  0  0  0  0
 27 29  1  0  0  0  0
 28 47  1  0  0  0  0
 29 30  2  0  0  0  0
 29 31  1  0  0  0  0
 33 48  1  0  0  0  0
 33 49  1  0  0  0  0
 33 50  1  0  0  0  0
M  END
$$$$
ZINC62875398
 OpenBabel01252620473D

 38 39  0  0  1  0  0  0  0  0999 V2000
   -0.0198    1.5060    0.0146 C   0  0  0  0  0  0  0  0  0  0  0  0
    0.0016   -0.0009    0.0054 C   0  0  0  0  0  0  0  0  0  0  0  0
    0.0066   -0.7037   -1.1562 C   0  0  0  0  0  0  0  0  0  0  0  0
    0.0339   -2.3754   -0.5292 S   0  0  0  0  0  0  0  0  0  0  0  0
    0.0359   -2.0062    1.1129 C   0  0  0  0  0  0  0  0  0  0  0  0
    0.0219   -0.6967    1.1247 N   0  0  0  0  0  0  0  0  0  0  0  0
    0.0550   -2.9529    2.2854 C   0  0  0  0  0  0  0  0  0  0  0  0
   -1.3199   -3.2802    2.6711 N   0  0  0  0  0  0  0  0  0  0  0  0
   -1.5493   -4.1163    3.7030 C   0  0  0  0  0  0  0  0  0  0  0  0
   -0.6185   -4.6708    4.2548 O   0  0  0  0  0  0  0  0  0  0  0  0
   -2.8106   -4.3377    4.1234 N   0  0  0  0  0  0  0  0  0  0  0  0
   -3.9530   -3.7683    3.3957 C   0  0  0  0  0  0  0  0  0  0  0  0
   -4.8228   -2.9815    4.3812 C   0  0  0  0  0  0  0  0  0  0  0  0
   -5.2115   -3.8898    5.5499 C   0  0  0  0  0  0  0  0  0  0  0  0
   -3.9490   -4.3511    6.2816 C   0  0  1  0  0  0  0  0  0  0  0  0
   -3.0696   -5.1580    5.3144 C   0  0  0  0  0  0  0  0  0  0  0  0
   -3.1750   -3.1305    6.7837 C   0  0  0  0  0  0  0  0  0  0  0  0
   -4.3345   -5.2191    7.4516 C   0  0  0  0  0  0  0  0  0  0  0  0
   -3.5842   -6.1034    7.8280 O   0  0  0  0  0  0  0  0  0  0  0  0
   -5.3968   -5.0372    8.0218 O   0  0  0  0  0  1  0  0  0  0  0  0
    1.0025    1.8839    0.0077 H   0  0  0  0  0  0  0  0  0  0  0  0
   -0.5467    1.8672   -0.8686 H   0  0  0  0  0  0  0  0  0  0  0  0
   -0.5308    1.8566    0.9112 H   0  0  0  0  0  0  0  0  0  0  0  0
   -0.0031   -0.3498   -2.1765 H   0  0  0  0  0  0  0  0  0  0  0  0
    0.5813   -3.8658    2.0067 H   0  0  0  0  0  0  0  0  0  0  0  0
    0.5654   -2.4811    3.1250 H   0  0  0  0  0  0  0  0  0  0  0  0
   -2.0651   -2.8953    2.1839 H   0  0  0  0  0  0  0  0  0  0  0  0
   -3.5919   -3.1007    2.6134 H   0  0  0  0  0  0  0  0  0  0  0  0
   -4.5401   -4.5718    2.9510 H   0  0  0  0  0  0  0  0  0  0  0  0
   -4.2631   -2.1249    4.7567 H   0  0  0  0  0  0  0  0  0  0  0  0
   -5.7235   -2.6346    3.8748 H   0  0  0  0  0  0  0  0  0  0  0  0
   -5.8508   -3.3396    6.2404 H   0  0  0  0  0  0  0  0  0  0  0  0
   -5.7497   -4.7587    5.1712 H   0  0  0  0  0  0  0  0  0  0  0  0
   -3.5862   -6.0725    5.0230 H   0  0  0  0  0  0  0  0  0  0  0  0
   -2.1254   -5.4076    5.7986 H   0  0  0  0  0  0  0  0  0  0  0  0
   -3.8023   -2.5584    7.4673 H   0  0  0  0  0  0  0  0  0  0  0  0
   -2.2759   -3.4595    7.3047 H   0  0  0  0  0  0  0  0  0  0  0  0
   -2.8954   -2.5040    5.9366 H   0  0  0  0  0  0  0  0  0  0  0  0
  1  2  1  0  0  0  0
  1 21  1  0  0  0  0
  1 22  1  0  0  0  0
  1 23  1  0  0  0  0
  2  6  1  0  0  0  0
  2  3  2  0  0  0  0
  3  4  1  0  0  0  0
  3 24  1  0  0  0  0
  4  5  1  0  0  0  0
  5  6  2  0  0  0  0
  5  7  1  0  0  0  0
  7  8  1  0  0  0  0
  7 25  1  0  0  0  0
  7 26  1  0  0  0  0
  8  9  1  0  0  0  0
  8 27  1  0  0  0  0
  9 10  2  0  0  0  0
  9 11  1  0  0  0  0
 11 16  1  0  0  0  0
 11 12  1  0  0  0  0
 12 13  1  0  0  0  0
 12 28  1  0  0  0  0
 12 29  1  0  0  0  0
 13 14  1  0  0  0  0
 13 30  1  0  0  0  0
 13 31  1  0  0  0  0
 14 15  1  0  0  0  0
 14 32  1  0  0  0  0
 14 33  1  0  0  0  0
 15 16  1  0  0  0  0
 15 17  1  0  0  0  0
 15 18  1  1  0  0  0
 16 34  1  0  0  0  0
 16 35  1  0  0  0  0
 17 36  1  0  0  0  0
 17 37  1  0  0  0  0
 17 38  1  0  0  0  0
 18 19  2  0  0  0  0
 18 20  1  0  0  0  0
M  END
$$$$
ZINC13060553
 OpenBabel01252620473D

 48 49  0  0  0  0  0  0  0  0999 V2000
   -2.8940    4.4239    5.4943 C   0  0  0  0  0  0  0  0  0  0  0  0
   -3.1180    3.0649    4.8827 C   0  0  0  0  0  0  0  0  0  0  0  0
   -3.9808    2.2507    5.4089 N   0  0  0  0  0  0  0  0  0  0  0  0
   -4.7040    2.6351    6.5455 N   0  0  0  0  0  0  0  0  0  0  0  0
   -5.6000    1.7895    7.0920 C   0  0  0  0  0  0  0  0  0  0  0  0
   -5.7808    0.6930    6.5984 O   0  0  0  0  0  0  0  0  0  0  0  0
   -6.3627    2.1949    8.2907 C   0  0  0  0  0  0  0  0  0  0  0  0
   -6.1532    3.4511    8.8632 C   0  0  0  0  0  0  0  0  0  0  0  0
   -6.8720    3.8257    9.9789 C   0  0  0  0  0  0  0  0  0  0  0  0
   -7.7920    2.9546   10.5380 C   0  0  0  0  0  0  0  0  0  0  0  0
   -8.0001    1.7051    9.9783 C   0  0  0  0  0  0  0  0  0  0  0  0
   -7.2917    1.3211    8.8591 C   0  0  0  0  0  0  0  0  0  0  0  0
   -8.7685    3.4736   12.0719 Br  0  0  0  0  0  0  0  0  0  0  0  0
   -2.3567    2.6603    3.6862 C   0  0  0  0  0  0  0  0  0  0  0  0
   -2.5618    1.4014    3.1165 C   0  0  0  0  0  0  0  0  0  0  0  0
   -1.8459    1.0295    1.9977 C   0  0  0  0  0  0  0  0  0  0  0  0
   -0.9267    1.9002    1.4394 C   0  0  0  0  0  0  0  0  0  0  0  0
   -0.7144    3.1466    2.0017 C   0  0  0  0  0  0  0  0  0  0  0  0
   -1.4269    3.5339    3.1174 C   0  0  0  0  0  0  0  0  0  0  0  0
   -0.0172    1.4168    0.0098 S   0  0  0  0  0  0  0  0  0  0  0  0
    0.0021   -0.0041    0.0020 O   0  0  0  0  0  0  0  0  0  0  0  0
    1.1718    2.1948    0.0027 O   0  0  0  0  0  0  0  0  0  0  0  0
   -0.8975    1.8855   -1.3122 N   0  0  0  0  0  0  0  0  0  0  0  0
   -1.1248    3.3089   -1.5738 C   0  0  0  0  0  0  0  0  0  0  0  0
   -1.6217    3.4906   -3.0094 C   0  0  0  0  0  0  0  0  0  0  0  0
   -1.8591    4.9772   -3.2826 C   0  0  0  0  0  0  0  0  0  0  0  0
   -2.3485    5.1562   -4.6966 C   0  0  0  0  0  0  0  0  0  0  0  0
   -2.4927    4.1935   -5.4124 O   0  0  0  0  0  0  0  0  0  0  0  0
   -3.5760    5.1432    5.0411 H   0  0  0  0  0  0  0  0  0  0  0  0
   -3.0788    4.3742    6.5674 H   0  0  0  0  0  0  0  0  0  0  0  0
   -1.8651    4.7370    5.3170 H   0  0  0  0  0  0  0  0  0  0  0  0
   -4.5598    3.5098    6.9393 H   0  0  0  0  0  0  0  0  0  0  0  0
   -5.4331    4.1297    8.4305 H   0  0  0  0  0  0  0  0  0  0  0  0
   -6.7141    4.7987   10.4200 H   0  0  0  0  0  0  0  0  0  0  0  0
   -8.7189    1.0302   10.4189 H   0  0  0  0  0  0  0  0  0  0  0  0
   -7.4554    0.3467    8.4231 H   0  0  0  0  0  0  0  0  0  0  0  0
   -3.2793    0.7211    3.5508 H   0  0  0  0  0  0  0  0  0  0  0  0
   -2.0033    0.0565    1.5562 H   0  0  0  0  0  0  0  0  0  0  0  0
    0.0080    3.8193    1.5634 H   0  0  0  0  0  0  0  0  0  0  0  0
   -1.2633    4.5087    3.5526 H   0  0  0  0  0  0  0  0  0  0  0  0
   -1.2626    1.2175   -1.9134 H   0  0  0  0  0  0  0  0  0  0  0  0
   -1.8729    3.6910   -0.8792 H   0  0  0  0  0  0  0  0  0  0  0  0
   -0.1917    3.8563   -1.4402 H   0  0  0  0  0  0  0  0  0  0  0  0
   -0.8736    3.1085   -3.7039 H   0  0  0  0  0  0  0  0  0  0  0  0
   -2.5547    2.9431   -3.1429 H   0  0  0  0  0  0  0  0  0  0  0  0
   -2.6072    5.3593   -2.5880 H   0  0  0  0  0  0  0  0  0  0  0  0
   -0.9260    5.5247   -3.1490 H   0  0  0  0  0  0  0  0  0  0  0  0
   -2.6243    6.3851   -5.1608 O   0  0  0  0  0  1  0  0  0  0  0  0
  1  2  1  0  0  0  0
  1 29  1  0  0  0  0
  1 30  1  0  0  0  0
  1 31  1  0  0  0  0
  2  3  2  0  0  0  0
  2 14  1  0  0  0  0
  3  4  1  0  0  0  0
  4  5  1  0  0  0  0
  4 32  1  0  0  0  0
  5  6  2  0  0  0  0
  5  7  1  0  0  0  0
  7 12  2  0  0  0  0
  7  8  1  0  0  0  0
  8  9  2  0  0  0  0
  8 33  1  0  0  0  0
  9 10  1  0  0  0  0
  9 34  1  0  0  0  0
 10 11  2  0  0  0  0
 10 13  1  0  0  0  0
 11 12  1  0  0  0  0
 11 35  1  0  0  0  0
 12 36  1  0  0  0  0
 14 19  2  0  0  0  0
 14 15  1  0  0  0  0
 15 16  2  0  0  0  0
 15 37  1  0  0  0  0
 16 17  1  0  0  0  0
 16 38  1  0  0  0  0
 17 18  2  0  0  0  0
 17 20  1  0  0  0  0
 18 19  1  0  0  0  0
 18 39  1  0  0  0  0
 19 40  1  0  0  0  0
 20 21  2  0  0  0  0
 20 22  2  0  0  0  0
 20 23  1  0  0  0  0
 23 24  1  0  0  0  0
 23 41  1  0  0  0  0
 24 25  1  0  0  0  0
 24 42  1  0  0  0  0
 24 43  1  0  0  0  0
 25 26  1  0  0  0  0
 25 44  1  0  0  0  0
 25 45  1  0  0  0  0
 26 27  1  0  0  0  0
 26 46  1  0  0  0  0
 26 47  1  0  0  0  0
 27 28  2  0  0  0  0
 27 48  1  0  0  0  0
M  END
$$$$
ZINC16929723
 OpenBabel01252620473D

 48 50  0  0  1  0  0  0  0  0999 V2000
    4.2059    2.6487    0.2532 C   0  0  0  0  0  0  0  0  0  0  0  0
    3.8270    2.3225   -1.1928 C   0  0  0  0  0  0  0  0  0  0  0  0
    2.3641    1.8781   -1.2489 C   0  0  2  0  0  0  0  0  0  0  0  0
    2.2104    1.0465   -0.5612 H   0  0  0  0  0  0  0  0  0  0  0  0
    2.0255    1.4400   -2.6505 C   0  0  0  0  0  0  0  0  0  0  0  0
    1.2154    2.0598   -3.2981 O   0  0  0  0  0  0  0  0  0  0  0  0
    1.5202    2.9686   -0.8738 O   0  0  0  0  0  0  0  0  0  0  0  0
    0.3032    2.6575   -0.3599 C   0  0  0  0  0  0  0  0  0  0  0  0
   -0.1183    1.3384   -0.3181 C   0  0  0  0  0  0  0  0  0  0  0  0
   -1.3575    1.0226    0.2052 C   0  0  0  0  0  0  0  0  0  0  0  0
   -2.1911    2.0193    0.6866 C   0  0  0  0  0  0  0  0  0  0  0  0
   -1.7885    3.3365    0.6583 C   0  0  0  0  0  0  0  0  0  0  0  0
   -0.5355    3.6714    0.1315 C   0  0  0  0  0  0  0  0  0  0  0  0
   -0.1007    5.0729    0.0934 C   0  0  0  0  0  0  0  0  0  0  0  0
   -1.0145    6.0704    0.2082 C   0  0  0  0  0  0  0  0  0  0  0  0
   -0.8069    7.5259    0.3442 C   0  0  0  0  0  0  0  0  0  0  0  0
    0.3082    8.0131    0.3686 O   0  0  0  0  0  0  0  0  0  0  0  0
   -1.8938    8.2733    0.4379 N   0  0  0  0  0  0  0  0  0  0  0  0
   -3.1275    7.7294    0.4101 C   0  0  0  0  0  0  0  0  0  0  0  0
   -4.6414    8.5217    0.5161 S   0  0  0  0  0  0  0  0  0  0  0  0
   -2.7999    5.9836    0.2280 S   0  0  0  0  0  0  0  0  0  0  0  0
   -1.7605    9.6619    0.5686 N   0  0  0  0  0  0  0  0  0  0  0  0
   -2.0197   10.4655   -0.4819 C   0  0  0  0  0  0  0  0  0  0  0  0
   -2.3691    9.9856   -1.5426 O   0  0  0  0  0  0  0  0  0  0  0  0
   -1.8791   11.9309   -0.3440 C   0  0  0  0  0  0  0  0  0  0  0  0
   -1.4781   12.4847    0.8731 C   0  0  0  0  0  0  0  0  0  0  0  0
   -1.3475   13.8525    0.9981 C   0  0  0  0  0  0  0  0  0  0  0  0
   -1.6131   14.6781   -0.0789 C   0  0  0  0  0  0  0  0  0  0  0  0
   -2.0120   14.1366   -1.2932 C   0  0  0  0  0  0  0  0  0  0  0  0
   -2.1412   12.7646   -1.4312 C   0  0  0  0  0  0  0  0  0  0  0  0
   -2.2713   14.9528   -2.3485 O   0  0  0  0  0  0  0  0  0  0  0  0
    4.0715    1.7621    0.8728 H   0  0  0  0  0  0  0  0  0  0  0  0
    5.2481    2.9653    0.2932 H   0  0  0  0  0  0  0  0  0  0  0  0
    3.5680    3.4510    0.6238 H   0  0  0  0  0  0  0  0  0  0  0  0
    4.4650    1.5202   -1.5634 H   0  0  0  0  0  0  0  0  0  0  0  0
    3.9614    3.2092   -1.8124 H   0  0  0  0  0  0  0  0  0  0  0  0
    0.5232    0.5554   -0.6948 H   0  0  0  0  0  0  0  0  0  0  0  0
   -1.6805   -0.0075    0.2351 H   0  0  0  0  0  0  0  0  0  0  0  0
   -3.1595    1.7619    1.0894 H   0  0  0  0  0  0  0  0  0  0  0  0
   -2.4398    4.1096    1.0384 H   0  0  0  0  0  0  0  0  0  0  0  0
    0.9460    5.3105   -0.0258 H   0  0  0  0  0  0  0  0  0  0  0  0
   -1.4818   10.0448    1.4150 H   0  0  0  0  0  0  0  0  0  0  0  0
   -1.2705   11.8428    1.7165 H   0  0  0  0  0  0  0  0  0  0  0  0
   -1.0371   14.2797    1.9403 H   0  0  0  0  0  0  0  0  0  0  0  0
   -1.5095   15.7481    0.0249 H   0  0  0  0  0  0  0  0  0  0  0  0
   -2.4475   12.3417   -2.3766 H   0  0  0  0  0  0  0  0  0  0  0  0
   -1.5016   15.1316   -2.9059 H   0  0  0  0  0  0  0  0  0  0  0  0
    2.6240    0.3612   -3.1794 O   0  0  0  0  0  1  0  0  0  0  0  0
  1  2  1  0  0  0  0
  1 32  1  0  0  0  0
  1 33  1  0  0  0  0
  1 34  1  0  0  0  0
  2  3  1  0  0  0  0
  2 35  1  0  0  0  0
  2 36  1  0  0  0  0
  3  4  1  1  0  0  0
  3  5  1  0  0  0  0
  3  7  1  0  0  0  0
  5  6  2  0  0  0  0
  5 48  1  0  0  0  0
  7  8  1  0  0  0  0
  8 13  2  0  0  0  0
  8  9  1  0  0  0  0
  9 10  2  0  0  0  0
  9 37  1  0  0  0  0
 10 11  1  0  0  0  0
 10 38  1  0  0  0  0
 11 12  2  0  0  0  0
 11 39  1  0  0  0  0
 12 13  1  0  0  0  0
 12 40  1  0  0  0  0
 13 14  1  0  0  0  0
 14 15  2  0  0  0  0
 14 41  1  0  0  0  0
 15 21  1  0  0  0  0
 15 16  1  0  0  0  0
 16 17  2  0  0  0  0
 16 18  1  0  0  0  0
 18 19  1  0  0  0  0
 18 22  1  0  0  0  0
 19 20  2  0  0  0  0
 19 21  1  0  0  0  0
 22 23  1  0  0  0  0
 22 42  1  0  0  0  0
 23 24  2  0  0  0  0
 23 25  1  0  0  0  0
 25 30  2  0  0  0  0
 25 26  1  0  0  0  0
 26 27  2  0  0  0  0
 26 43  1  0  0  0  0
 27 28  1  0  0  0  0
 27 44  1  0  0  0  0
 28 29  2  0  0  0  0
 28 45  1  0  0  0  0
 29 30  1  0  0  0  0
 29 31  1  0  0  0  0
 30 46  1  0  0  0  0
 31 47  1  0  0  0  0
M  END
$$$$
ZINC13402102
 OpenBabel01252620473D

 37 39  0  0  0  0  0  0  0  0999 V2000
   -2.1797   -0.8500    0.1938 C   0  0  0  0  0  0  0  0  0  0  0  0
   -2.8224   -2.0109   -0.1827 C   0  0  0  0  0  0  0  0  0  0  0  0
   -3.7515   -2.5961    0.6610 C   0  0  0  0  0  0  0  0  0  0  0  0
   -4.0376   -2.0231    1.8888 C   0  0  0  0  0  0  0  0  0  0  0  0
   -3.3978   -0.8649    2.2783 C   0  0  0  0  0  0  0  0  0  0  0  0
   -2.4600   -0.2707    1.4324 C   0  0  0  0  0  0  0  0  0  0  0  0
   -1.7707    0.9706    1.8441 C   0  0  0  0  0  0  0  0  0  0  0  0
   -2.1591    1.8051    2.7800 N   0  0  0  0  0  0  0  0  0  0  0  0
   -1.3243    2.7774    2.8749 N   0  0  0  0  0  0  0  0  0  0  0  0
   -0.3485    2.6207    2.0084 C   0  0  0  0  0  0  0  0  0  0  0  0
   -0.6008    1.4691    1.3188 N   0  0  0  0  0  0  0  0  0  0  0  0
    0.2088    0.8834    0.2475 C   0  0  0  0  0  0  0  0  0  0  0  0
   -0.2396    1.4365   -1.0807 C   0  0  0  0  0  0  0  0  0  0  0  0
   -1.1427    2.2377   -1.1276 O   0  0  0  0  0  0  0  0  0  0  0  0
    1.0269    3.6974    1.7772 S   0  0  0  0  0  0  0  0  0  0  0  0
    0.6561    4.9538    3.0262 C   0  0  0  0  0  0  0  0  0  0  0  0
    1.7307    6.0101    3.0106 C   0  0  0  0  0  0  0  0  0  0  0  0
    2.6562    5.9222    2.2318 O   0  0  0  0  0  0  0  0  0  0  0  0
    1.6633    7.0526    3.8622 N   0  0  0  0  0  0  0  0  0  0  0  0
    2.6581    8.0305    3.8478 C   0  0  0  0  0  0  0  0  0  0  0  0
    3.8023    8.0704    3.0074 C   0  0  0  0  0  0  0  0  0  0  0  0
    4.4400    9.2041    3.3782 C   0  0  0  0  0  0  0  0  0  0  0  0
    3.7093    9.7511    4.3604 O   0  0  0  0  0  0  0  0  0  0  0  0
    2.7272    9.0909    4.6090 N   0  0  0  0  0  0  0  0  0  0  0  0
   -4.5613   -4.0535    0.1773 Cl  0  0  0  0  0  0  0  0  0  0  0  0
   -1.4582   -0.3923   -0.4668 H   0  0  0  0  0  0  0  0  0  0  0  0
   -2.6036   -2.4621   -1.1393 H   0  0  0  0  0  0  0  0  0  0  0  0
   -4.7635   -2.4839    2.5424 H   0  0  0  0  0  0  0  0  0  0  0  0
   -3.6223   -0.4186    3.2358 H   0  0  0  0  0  0  0  0  0  0  0  0
    0.0862   -0.1997    0.2502 H   0  0  0  0  0  0  0  0  0  0  0  0
    1.2581    1.1306    0.4085 H   0  0  0  0  0  0  0  0  0  0  0  0
   -0.3076    5.4126    2.8050 H   0  0  0  0  0  0  0  0  0  0  0  0
    0.6191    4.4875    4.0108 H   0  0  0  0  0  0  0  0  0  0  0  0
    0.9231    7.1229    4.4851 H   0  0  0  0  0  0  0  0  0  0  0  0
    4.0942    7.3613    2.2469 H   0  0  0  0  0  0  0  0  0  0  0  0
    5.3608    9.5905    2.9670 H   0  0  0  0  0  0  0  0  0  0  0  0
    0.3645    1.0390   -2.2116 O   0  0  0  0  0  1  0  0  0  0  0  0
  1  6  2  0  0  0  0
  1  2  1  0  0  0  0
  1 26  1  0  0  0  0
  2  3  2  0  0  0  0
  2 27  1  0  0  0  0
  3  4  1  0  0  0  0
  3 25  1  0  0  0  0
  4  5  2  0  0  0  0
  4 28  1  0  0  0  0
  5  6  1  0  0  0  0
  5 29  1  0  0  0  0
  6  7  1  0  0  0  0
  7 11  1  0  0  0  0
  7  8  2  0  0  0  0
  8  9  1  0  0  0  0
  9 10  2  0  0  0  0
 10 11  1  0  0  0  0
 10 15  1  0  0  0  0
 11 12  1  0  0  0  0
 12 13  1  0  0  0  0
 12 30  1  0  0  0  0
 12 31  1  0  0  0  0
 13 14  2  0  0  0  0
 13 37  1  0  0  0  0
 15 16  1  0  0  0  0
 16 17  1  0  0  0  0
 16 32  1  0  0  0  0
 16 33  1  0  0  0  0
 17 18  2  0  0  0  0
 17 19  1  0  0  0  0
 19 20  1  0  0  0  0
 19 34  1  0  0  0  0
 20 24  2  0  0  0  0
 20 21  1  0  0  0  0
 21 22  2  0  0  0  0
 21 35  1  0  0  0  0
 22 23  1  0  0  0  0
 22 36  1  0  0  0  0
 23 24  1  0  0  0  0
M  END
$$$$
ZINC35375009
 OpenBabel01252620473D

 51 53  0  0  1  0  0  0  0  0999 V2000
    5.5585    1.5900    0.4139 C   0  0  0  0  0  0  0  0  0  0  0  0
    5.6286    0.1627    0.4158 O   0  0  0  0  0  0  0  0  0  0  0  0
    4.8899   -0.4891    1.3490 C   0  0  0  0  0  0  0  0  0  0  0  0
    4.1072    0.2338    2.2425 C   0  0  0  0  0  0  0  0  0  0  0  0
    3.3560   -0.4236    3.1904 C   0  0  0  0  0  0  0  0  0  0  0  0
    3.3806   -1.8202    3.2538 C   0  0  0  0  0  0  0  0  0  0  0  0
    4.1690   -2.5432    2.3534 C   0  0  0  0  0  0  0  0  0  0  0  0
    4.9132   -1.8783    1.4052 C   0  0  0  0  0  0  0  0  0  0  0  0
    2.5770   -2.5292    4.2689 C   0  0  0  0  0  0  0  0  0  0  0  0
    2.5419   -3.9951    4.2834 C   0  0  0  0  0  0  0  0  0  0  0  0
    1.9573   -4.8930    3.2182 C   0  0  1  0  0  0  0  0  0  0  0  0
    2.4744   -4.7372    2.2714 H   0  0  0  0  0  0  0  0  0  0  0  0
    2.1630   -6.2691    3.6849 N   0  0  0  0  0  0  0  0  0  0  0  0
    2.7889   -6.2131    4.8745 C   0  0  0  0  0  0  0  0  0  0  0  0
    3.1104   -7.1778    5.5395 O   0  0  0  0  0  0  0  0  0  0  0  0
    3.0323   -4.8046    5.2506 C   0  0  0  0  0  0  0  0  0  0  0  0
    3.6458   -4.3903    6.3831 O   0  5  0  0  0  0  0  0  0  0  0  0
    1.7580   -7.4881    2.9805 C   0  0  0  0  0  0  0  0  0  0  0  0
    2.8936   -7.9491    2.0646 C   0  0  0  0  0  0  0  0  0  0  0  0
    4.0209   -8.3273    2.8571 O   0  0  0  0  0  0  0  0  0  0  0  0
    5.1431   -8.7762    2.0947 C   0  0  0  0  0  0  0  0  0  0  0  0
    6.2849   -9.1526    3.0409 C   0  0  0  0  0  0  0  0  0  0  0  0
    5.8948  -10.2743    3.8357 O   0  0  0  0  0  0  0  0  0  0  0  0
    0.4849   -4.6151    3.0571 C   0  0  0  0  0  0  0  0  0  0  0  0
   -0.4091   -5.0455    4.0201 C   0  0  0  0  0  0  0  0  0  0  0  0
   -1.7597   -4.7909    3.8729 C   0  0  0  0  0  0  0  0  0  0  0  0
   -2.2172   -4.1058    2.7628 C   0  0  0  0  0  0  0  0  0  0  0  0
   -1.3232   -3.6747    1.7996 C   0  0  0  0  0  0  0  0  0  0  0  0
    0.0291   -3.9252    1.9499 C   0  0  0  0  0  0  0  0  0  0  0  0
   -1.9485   -2.7381    0.2805 Br  0  0  0  0  0  0  0  0  0  0  0  0
    1.9435   -1.8972    5.0937 O   0  0  0  0  0  0  0  0  0  0  0  0
    5.8993    1.9718    1.3763 H   0  0  0  0  0  0  0  0  0  0  0  0
    6.1943    1.9839   -0.3790 H   0  0  0  0  0  0  0  0  0  0  0  0
    4.5285    1.9029    0.2429 H   0  0  0  0  0  0  0  0  0  0  0  0
    4.0890    1.3125    2.1930 H   0  0  0  0  0  0  0  0  0  0  0  0
    2.7486    0.1387    3.8842 H   0  0  0  0  0  0  0  0  0  0  0  0
    4.1908   -3.6220    2.3991 H   0  0  0  0  0  0  0  0  0  0  0  0
    5.5189   -2.4362    0.7065 H   0  0  0  0  0  0  0  0  0  0  0  0
    1.5362   -8.2705    3.7062 H   0  0  0  0  0  0  0  0  0  0  0  0
    0.8694   -7.2842    2.3830 H   0  0  0  0  0  0  0  0  0  0  0  0
    2.5609   -8.8034    1.4751 H   0  0  0  0  0  0  0  0  0  0  0  0
    3.1755   -7.1347    1.3972 H   0  0  0  0  0  0  0  0  0  0  0  0
    4.8570   -9.6476    1.5057 H   0  0  0  0  0  0  0  0  0  0  0  0
    5.4716   -7.9789    1.4279 H   0  0  0  0  0  0  0  0  0  0  0  0
    7.1696   -9.4100    2.4585 H   0  0  0  0  0  0  0  0  0  0  0  0
    6.5113   -8.3077    3.6913 H   0  0  0  0  0  0  0  0  0  0  0  0
    6.5720  -10.5684    4.4602 H   0  0  0  0  0  0  0  0  0  0  0  0
   -0.0521   -5.5811    4.8873 H   0  0  0  0  0  0  0  0  0  0  0  0
   -2.4576   -5.1276    4.6252 H   0  0  0  0  0  0  0  0  0  0  0  0
   -3.2725   -3.9076    2.6476 H   0  0  0  0  0  0  0  0  0  0  0  0
    0.7279   -3.5854    1.1998 H   0  0  0  0  0  0  0  0  0  0  0  0
  1  2  1  0  0  0  0
  1 32  1  0  0  0  0
  1 33  1  0  0  0  0
  1 34  1  0  0  0  0
  2  3  1  0  0  0  0
  3  8  2  0  0  0  0
  3  4  1  0  0  0  0
  4  5  2  0  0  0  0
  4 35  1  0  0  0  0
  5  6  1  0  0  0  0
  5 36  1  0  0  0  0
  6  7  2  0  0  0  0
  6  9  1  0  0  0  0
  7  8  1  0  0  0  0
  7 37  1  0  0  0  0
  8 38  1  0  0  0  0
  9 10  1  0  0  0  0
  9 31  2  0  0  0  0
 10 16  2  0  0  0  0
 10 11  1  0  0  0  0
 11 13  1  0  0  0  0
 11 24  1  0  0  0  0
 11 12  1  6  0  0  0
 13 18  1  0  0  0  0
 13 14  1  0  0  0  0
 14 15  2  0  0  0  0
 14 16  1  0  0  0  0
 16 17  1  0  0  0  0
 18 19  1  0  0  0  0
 18 39  1  0  0  0  0
 18 40  1  0  0  0  0
 19 20  1  0  0  0  0
 19 41  1  0  0  0  0
 19 42  1  0  0  0  0
 20 21  1  0  0  0  0
 21 22  1  0  0  0  0
 21 43  1  0  0  0  0
 21 44  1  0  0  0  0
 22 23  1  0  0  0  0
 22 45  1  0  0  0  0
 22 46  1  0  0  0  0
 23 47  1  0  0  0  0
 24 29  2  0  0  0  0
 24 25  1  0  0  0  0
 25 26  2  0  0  0  0
 25 48  1  0  0  0  0
 26 27  1  0  0  0  0
 26 49  1  0  0  0  0
 27 28  2  0  0  0  0
 27 50  1  0  0  0  0
 28 29  1  0  0  0  0
 28 30  1  0  0  0  0
 29 51  1  0  0  0  0
M  CHG  1  17  -1
M  END
$$$$
ZINC34725254
 OpenBabel01252620473D

 54 57  0  0  0  0  0  0  0  0999 V2000
   -0.0352    1.5080    0.0527 C   0  0  0  0  0  0  0  0  0  0  0  0
   -0.0109    0.0013    0.0339 C   0  0  0  0  0  0  0  0  0  0  0  0
   -1.0621   -0.7971    0.0300 C   0  0  0  0  0  0  0  0  0  0  0  0
   -0.6614   -2.2323    0.0101 C   0  0  0  0  0  0  0  0  0  0  0  0
    0.6974   -2.2772    0.0018 C   0  0  0  0  0  0  0  0  0  0  0  0
    1.1015   -4.0024   -0.0218 S   0  0  0  0  0  0  0  0  0  0  0  0
   -0.5427   -4.6659   -0.0206 C   0  0  0  0  0  0  0  0  0  0  0  0
   -1.3567   -3.5377   -0.0017 C   0  0  0  0  0  0  0  0  0  0  0  0
   -2.8112   -3.7961    0.0037 C   0  0  0  0  0  0  0  0  0  0  0  0
   -3.6020   -2.8706    0.0189 O   0  0  0  0  0  0  0  0  0  0  0  0
   -3.2504   -5.0676   -0.0089 N   0  0  0  0  0  0  0  0  0  0  0  0
   -2.4039   -6.1103   -0.0258 C   0  0  0  0  0  0  0  0  0  0  0  0
   -2.8511   -7.2410   -0.0362 O   0  0  0  0  0  0  0  0  0  0  0  0
   -1.0684   -5.9280   -0.0332 N   0  0  0  0  0  0  0  0  0  0  0  0
   -0.1750   -7.0889   -0.0526 C   0  0  0  0  0  0  0  0  0  0  0  0
    0.1395   -7.5044    1.3615 C   0  0  0  0  0  0  0  0  0  0  0  0
   -0.3359   -6.8912    2.2937 O   0  0  0  0  0  0  0  0  0  0  0  0
    0.9490   -8.5574    1.5902 N   0  0  0  0  0  0  0  0  0  0  0  0
   -4.6930   -5.3222   -0.0035 C   0  0  0  0  0  0  0  0  0  0  0  0
   -5.1960   -5.3926   -1.4223 C   0  0  0  0  0  0  0  0  0  0  0  0
   -4.4252   -5.2446   -2.3471 O   0  0  0  0  0  0  0  0  0  0  0  0
   -6.5023   -5.6200   -1.6637 N   0  0  0  0  0  0  0  0  0  0  0  0
   -6.9876   -5.5893   -2.9777 C   0  0  0  0  0  0  0  0  0  0  0  0
   -8.2597   -5.0970   -3.2370 C   0  0  0  0  0  0  0  0  0  0  0  0
   -8.7372   -5.0666   -4.5323 C   0  0  0  0  0  0  0  0  0  0  0  0
   -7.9465   -5.5283   -5.5744 C   0  0  0  0  0  0  0  0  0  0  0  0
   -6.6756   -6.0207   -5.3160 C   0  0  0  0  0  0  0  0  0  0  0  0
   -6.1945   -6.0459   -4.0219 C   0  0  0  0  0  0  0  0  0  0  0  0
   -8.4174   -5.4985   -6.8496 O   0  0  0  0  0  0  0  0  0  0  0  0
   -7.5497   -5.9896   -7.8733 C   0  0  0  0  0  0  0  0  0  0  0  0
    1.2222   -0.8736    0.0095 C   0  0  0  0  0  0  0  0  0  0  0  0
   -2.4904   -0.3167    0.0440 C   0  0  0  0  0  0  0  0  0  0  0  0
    0.9864    1.8880    0.0465 H   0  0  0  0  0  0  0  0  0  0  0  0
   -0.5643    1.8738   -0.8273 H   0  0  0  0  0  0  0  0  0  0  0  0
   -0.5454    1.8520    0.9524 H   0  0  0  0  0  0  0  0  0  0  0  0
   -0.6616   -7.9132   -0.5738 H   0  0  0  0  0  0  0  0  0  0  0  0
    0.7490   -6.8277   -0.5685 H   0  0  0  0  0  0  0  0  0  0  0  0
    1.3292   -9.0478    0.8446 H   0  0  0  0  0  0  0  0  0  0  0  0
    1.1514   -8.8249    2.5004 H   0  0  0  0  0  0  0  0  0  0  0  0
   -4.8932   -6.2679    0.5003 H   0  0  0  0  0  0  0  0  0  0  0  0
   -5.2025   -4.5151    0.5230 H   0  0  0  0  0  0  0  0  0  0  0  0
   -7.1065   -5.8049   -0.9278 H   0  0  0  0  0  0  0  0  0  0  0  0
   -8.8757   -4.7382   -2.4257 H   0  0  0  0  0  0  0  0  0  0  0  0
   -9.7267   -4.6836   -4.7341 H   0  0  0  0  0  0  0  0  0  0  0  0
   -6.0607   -6.3806   -6.1277 H   0  0  0  0  0  0  0  0  0  0  0  0
   -5.2032   -6.4249   -3.8214 H   0  0  0  0  0  0  0  0  0  0  0  0
   -6.6327   -5.4004   -7.8859 H   0  0  0  0  0  0  0  0  0  0  0  0
   -7.3080   -7.0337   -7.6747 H   0  0  0  0  0  0  0  0  0  0  0  0
   -8.0465   -5.9092   -8.8402 H   0  0  0  0  0  0  0  0  0  0  0  0
    1.8069   -0.6800   -0.8898 H   0  0  0  0  0  0  0  0  0  0  0  0
    1.8267   -0.7019    0.9002 H   0  0  0  0  0  0  0  0  0  0  0  0
   -2.5071    0.7731    0.0571 H   0  0  0  0  0  0  0  0  0  0  0  0
   -3.0037   -0.6772   -0.8473 H   0  0  0  0  0  0  0  0  0  0  0  0
   -2.9934   -0.6984    0.9325 H   0  0  0  0  0  0  0  0  0  0  0  0
  1  2  1  0  0  0  0
  1 33  1  0  0  0  0
  1 34  1  0  0  0  0
  1 35  1  0  0  0  0
  2 31  1  0  0  0  0
  2  3  2  0  0  0  0
  3  4  1  0  0  0  0
  3 32  1  0  0  0  0
  4  8  1  0  0  0  0
  4  5  2  0  0  0  0
  5  6  1  0  0  0  0
  5 31  1  0  0  0  0
  6  7  1  0  0  0  0
  7 14  1  0  0  0  0
  7  8  2  0  0  0  0
  8  9  1  0  0  0  0
  9 10  2  0  0  0  0
  9 11  1  0  0  0  0
 11 12  1  0  0  0  0
 11 19  1  0  0  0  0
 12 13  2  0  0  0  0
 12 14  1  0  0  0  0
 14 15  1  0  0  0  0
 15 16  1  0  0  0  0
 15 36  1  0  0  0  0
 15 37  1  0  0  0  0
 16 17  2  0  0  0  0
 16 18  1  0  0  0  0
 18 38  1  0  0  0  0
 18 39  1  0  0  0  0
 19 20  1  0  0  0  0
 19 40  1  0  0  0  0
 19 41  1  0  0  0  0
 20 21  2  0  0  0  0
 20 22  1  0  0  0  0
 22 23  1  0  0  0  0
 22 42  1  0  0  0  0
 23 28  2  0  0  0  0
 23 24  1  0  0  0  0
 24 25  2  0  0  0  0
 24 43  1  0  0  0  0
 25 26  1  0  0  0  0
 25 44  1  0  0  0  0
 26 27  2  0  0  0  0
 26 29  1  0  0  0  0
 27 28  1  0  0  0  0
 27 45  1  0  0  0  0
 28 46  1  0  0  0  0
 29 30  1  0  0  0  0
 30 47  1  0  0  0  0
 30 48  1  0  0  0  0
 30 49  1  0  0  0  0
 31 50  1  0  0  0  0
 31 51  1  0  0  0  0
 32 52  1  0  0  0  0
 32 53  1  0  0  0  0
 32 54  1  0  0  0  0
M  END
$$$$
ZINC35696411
 OpenBabel01252620473D

 61 64  0  0  1  0  0  0  0  0999 V2000
    0.0668    1.7866   -0.0159 C   0  0  0  0  0  0  0  0  0  0  0  0
    0.0670    0.2800    0.0173 C   0  0  0  0  0  0  0  0  0  0  0  0
   -1.1321   -0.4059    0.0450 C   0  0  0  0  0  0  0  0  0  0  0  0
   -1.0795   -1.9171    0.0772 C   0  0  1  0  0  0  0  0  0  0  0  0
   -1.6251   -2.2904   -0.7894 H   0  0  0  0  0  0  0  0  0  0  0  0
    0.2675   -2.5474    0.0764 N   0  0  0  0  0  0  0  0  0  0  0  0
    0.5530   -3.8980    0.1022 C   0  0  0  0  0  0  0  0  0  0  0  0
    1.8538   -4.2640    0.0959 C   0  0  0  0  0  0  0  0  0  0  0  0
    2.6805   -2.6863    0.0531 S   0  0  0  0  0  0  0  0  0  0  0  0
    1.3307   -1.6888    0.0465 C   0  0  0  0  0  0  0  0  0  0  0  0
    1.2154   -0.3771    0.0142 N   0  0  0  0  0  0  0  0  0  0  0  0
   -0.5199   -4.9022    0.1359 C   0  0  0  0  0  0  0  0  0  0  0  0
   -0.2180   -6.2054    0.2927 C   0  0  0  0  0  0  0  0  0  0  0  0
    1.0774   -6.6036    0.3095 O   0  5  0  0  0  0  0  0  0  0  0  0
   -1.2310   -7.1383    0.4367 N   0  0  0  0  0  0  0  0  0  0  0  0
   -0.9026   -8.5558    0.6073 C   0  0  0  0  0  0  0  0  0  0  0  0
   -2.1936   -9.3657    0.7429 C   0  0  1  0  0  0  0  0  0  0  0  0
   -2.8147   -9.2377   -0.1436 H   0  0  0  0  0  0  0  0  0  0  0  0
   -1.8677  -10.8649    0.9595 C   0  0  0  0  0  0  0  0  0  0  0  0
   -3.1525  -11.3435    1.6889 C   0  0  0  0  0  0  0  0  0  0  0  0
   -3.5361  -10.1034    2.5245 C   0  0  0  0  0  0  0  0  0  0  0  0
   -2.9138   -8.9626    1.9186 O   0  0  0  0  0  0  0  0  0  0  0  0
   -1.8070   -2.3804    1.3130 C   0  0  0  0  0  0  0  0  0  0  0  0
   -3.0594   -2.9547    1.2034 C   0  0  0  0  0  0  0  0  0  0  0  0
   -3.7269   -3.3798    2.3367 C   0  0  0  0  0  0  0  0  0  0  0  0
   -3.1428   -3.2311    3.5810 C   0  0  0  0  0  0  0  0  0  0  0  0
   -1.8906   -2.6576    3.6930 C   0  0  0  0  0  0  0  0  0  0  0  0
   -1.2187   -2.2362    2.5578 C   0  0  0  0  0  0  0  0  0  0  0  0
    0.0076   -1.6797    2.6656 F   0  0  0  0  0  0  0  0  0  0  0  0
   -2.3553    0.2754    0.0438 C   0  0  0  0  0  0  0  0  0  0  0  0
   -2.3758    1.4911    0.1268 O   0  0  0  0  0  0  0  0  0  0  0  0
   -3.5133   -0.4151   -0.0494 O   0  0  0  0  0  0  0  0  0  0  0  0
   -4.7237    0.3444   -0.0448 C   0  0  0  0  0  0  0  0  0  0  0  0
   -5.9203   -0.6024   -0.1571 C   0  0  0  0  0  0  0  0  0  0  0  0
   -5.9867   -1.4266    1.0083 O   0  0  0  0  0  0  0  0  0  0  0  0
   -7.0751   -2.3525    1.0042 C   0  0  0  0  0  0  0  0  0  0  0  0
    1.0943    2.1497   -0.0396 H   0  0  0  0  0  0  0  0  0  0  0  0
   -0.4607    2.1304   -0.9057 H   0  0  0  0  0  0  0  0  0  0  0  0
   -0.4334    2.1696    0.8737 H   0  0  0  0  0  0  0  0  0  0  0  0
    2.2814   -5.2556    0.1129 H   0  0  0  0  0  0  0  0  0  0  0  0
   -1.5504   -4.5950    0.0348 H   0  0  0  0  0  0  0  0  0  0  0  0
   -2.1581   -6.8533    0.4247 H   0  0  0  0  0  0  0  0  0  0  0  0
   -0.3434   -8.9061   -0.2603 H   0  0  0  0  0  0  0  0  0  0  0  0
   -0.2978   -8.6831    1.5051 H   0  0  0  0  0  0  0  0  0  0  0  0
   -1.7410  -11.3808    0.0077 H   0  0  0  0  0  0  0  0  0  0  0  0
   -0.9881  -10.9885    1.5913 H   0  0  0  0  0  0  0  0  0  0  0  0
   -3.9375  -11.5866    0.9727 H   0  0  0  0  0  0  0  0  0  0  0  0
   -2.9377  -12.1950    2.3346 H   0  0  0  0  0  0  0  0  0  0  0  0
   -4.6187   -9.9767    2.5227 H   0  0  0  0  0  0  0  0  0  0  0  0
   -3.1782  -10.2215    3.5473 H   0  0  0  0  0  0  0  0  0  0  0  0
   -3.5168   -3.0710    0.2320 H   0  0  0  0  0  0  0  0  0  0  0  0
   -4.7057   -3.8281    2.2501 H   0  0  0  0  0  0  0  0  0  0  0  0
   -3.6656   -3.5629    4.4659 H   0  0  0  0  0  0  0  0  0  0  0  0
   -1.4347   -2.5413    4.6651 H   0  0  0  0  0  0  0  0  0  0  0  0
   -4.7940    0.9101    0.8842 H   0  0  0  0  0  0  0  0  0  0  0  0
   -4.7242    1.0324   -0.8901 H   0  0  0  0  0  0  0  0  0  0  0  0
   -6.8376   -0.0200   -0.2430 H   0  0  0  0  0  0  0  0  0  0  0  0
   -5.8048   -1.2307   -1.0403 H   0  0  0  0  0  0  0  0  0  0  0  0
   -8.0164   -1.8064    0.9425 H   0  0  0  0  0  0  0  0  0  0  0  0
   -6.9836   -3.0171    0.1451 H   0  0  0  0  0  0  0  0  0  0  0  0
   -7.0556   -2.9403    1.9220 H   0  0  0  0  0  0  0  0  0  0  0  0
  1  2  1  0  0  0  0
  1 37  1  0  0  0  0
  1 38  1  0  0  0  0
  1 39  1  0  0  0  0
  2 11  1  0  0  0  0
  2  3  2  0  0  0  0
  3  4  1  0  0  0  0
  3 30  1  0  0  0  0
  4  5  1  6  0  0  0
  4  6  1  0  0  0  0
  4 23  1  0  0  0  0
  6 10  1  0  0  0  0
  6  7  1  0  0  0  0
  7  8  2  0  0  0  0
  7 12  1  0  0  0  0
  8  9  1  0  0  0  0
  8 40  1  0  0  0  0
  9 10  1  0  0  0  0
 10 11  2  0  0  0  0
 12 13  2  0  0  0  0
 12 41  1  0  0  0  0
 13 14  1  0  0  0  0
 13 15  1  0  0  0  0
 15 16  1  0  0  0  0
 15 42  1  0  0  0  0
 16 17  1  0  0  0  0
 16 43  1  0  0  0  0
 16 44  1  0  0  0  0
 17 18  1  6  0  0  0
 17 22  1  0  0  0  0
 17 19  1  0  0  0  0
 19 20  1  0  0  0  0
 19 45  1  0  0  0  0
 19 46  1  0  0  0  0
 20 21  1  0  0  0  0
 20 47  1  0  0  0  0
 20 48  1  0  0  0  0
 21 22  1  0  0  0  0
 21 49  1  0  0  0  0
 21 50  1  0  0  0  0
 23 28  2  0  0  0  0
 23 24  1  0  0  0  0
 24 25  2  0  0  0  0
 24 51  1  0  0  0  0
 25 26  1  0  0  0  0
 25 52  1  0  0  0  0
 26 27  2  0  0  0  0
 26 53  1  0  0  0  0
 27 28  1  0  0  0  0
 27 54  1  0  0  0  0
 28 29  1  0  0  0  0
 30 31  2  0  0  0  0
 30 32  1  0  0  0  0
 32 33  1  0  0  0  0
 33 34  1  0  0  0  0
 33 55  1  0  0  0  0
 33 56  1  0  0  0  0
 34 35  1  0  0  0  0
 34 57  1  0  0  0  0
 34 58  1  0  0  0  0
 35 36  1  0  0  0  0
 36 59  1  0  0  0  0
 36 60  1  0  0  0  0
 36 61  1  0  0  0  0
M  CHG  1  14  -1
M  END
$$$$
ZINC06088850
 OpenBabel01252620473D

 51 53  0  0  0  0  0  0  0  0999 V2000
    4.6372   -3.6513   -3.1165 C   0  0  0  0  0  0  0  0  0  0  0  0
    3.3885   -3.7531   -2.2790 C   0  0  0  0  0  0  0  0  0  0  0  0
    2.4547   -4.7160   -2.3697 C   0  0  0  0  0  0  0  0  0  0  0  0
    1.4515   -4.4460   -1.4111 C   0  0  0  0  0  0  0  0  0  0  0  0
    1.7882   -3.3528   -0.7746 N   0  0  0  0  0  0  0  0  0  0  0  0
    3.0192   -2.9012   -1.3096 O   0  0  0  0  0  0  0  0  0  0  0  0
    0.3091   -5.2066   -1.1847 N   0  0  0  0  0  2  0  0  0  0  0  0
   -0.7722   -4.7491   -0.0169 S   0  0  0  0  0  0  0  0  0  0  0  0
   -0.1035   -4.8814    1.2300 O   0  0  0  0  0  0  0  0  0  0  0  0
   -1.3418   -3.5212   -0.4493 O   0  0  0  0  0  0  0  0  0  0  0  0
   -2.0741   -5.9364   -0.0185 C   0  0  0  0  0  0  0  0  0  0  0  0
   -3.1771   -5.7496   -0.8314 C   0  0  0  0  0  0  0  0  0  0  0  0
   -4.1993   -6.6784   -0.8350 C   0  0  0  0  0  0  0  0  0  0  0  0
   -4.1186   -7.8008   -0.0211 C   0  0  0  0  0  0  0  0  0  0  0  0
   -3.0094   -7.9855    0.7941 C   0  0  0  0  0  0  0  0  0  0  0  0
   -1.9880   -7.0558    0.7889 C   0  0  0  0  0  0  0  0  0  0  0  0
   -5.1523   -8.7431   -0.0221 N   0  0  0  0  0  0  0  0  0  0  0  0
   -5.7245   -9.1145   -1.1844 C   0  0  0  0  0  0  0  0  0  0  0  0
   -5.0944   -8.5425   -2.6699 S   0  0  0  0  0  0  0  0  0  0  0  0
   -6.7928   -9.9362   -1.1774 N   0  0  0  0  0  0  0  0  0  0  0  0
   -7.3650  -10.3076   -2.3397 C   0  0  0  0  0  0  0  0  0  0  0  0
   -6.9171   -9.9010   -3.3957 O   0  0  0  0  0  0  0  0  0  0  0  0
   -8.5233  -11.1986   -2.3321 C   0  0  0  0  0  0  0  0  0  0  0  0
   -9.0968  -11.5707   -3.4969 C   0  0  0  0  0  0  0  0  0  0  0  0
  -10.2617  -12.4668   -3.4892 C   0  0  0  0  0  0  0  0  0  0  0  0
  -10.7824  -12.9313   -2.2756 C   0  0  0  0  0  0  0  0  0  0  0  0
  -11.8740  -13.7700   -2.2739 C   0  0  0  0  0  0  0  0  0  0  0  0
  -12.4588  -14.1562   -3.4746 C   0  0  0  0  0  0  0  0  0  0  0  0
  -11.9455  -13.6977   -4.6825 C   0  0  0  0  0  0  0  0  0  0  0  0
  -10.8579  -12.8540   -4.6951 C   0  0  0  0  0  0  0  0  0  0  0  0
  -13.5344  -14.9841   -3.4675 O   0  0  0  0  0  0  0  0  0  0  0  0
  -14.0865  -15.3414   -4.7362 C   0  0  0  0  0  0  0  0  0  0  0  0
    5.2055   -2.7711   -2.8159 H   0  0  0  0  0  0  0  0  0  0  0  0
    5.2459   -4.5438   -2.9713 H   0  0  0  0  0  0  0  0  0  0  0  0
    4.3634   -3.5654   -4.1681 H   0  0  0  0  0  0  0  0  0  0  0  0
    2.4685   -5.5502   -3.0556 H   0  0  0  0  0  0  0  0  0  0  0  0
   -3.2395   -4.8764   -1.4638 H   0  0  0  0  0  0  0  0  0  0  0  0
   -5.0607   -6.5317   -1.4698 H   0  0  0  0  0  0  0  0  0  0  0  0
   -2.9436   -8.8573    1.4282 H   0  0  0  0  0  0  0  0  0  0  0  0
   -1.1232   -7.2010    1.4193 H   0  0  0  0  0  0  0  0  0  0  0  0
   -5.4574   -9.1293    0.8138 H   0  0  0  0  0  0  0  0  0  0  0  0
   -7.1498  -10.2603   -0.3357 H   0  0  0  0  0  0  0  0  0  0  0  0
   -8.9208  -11.5594   -1.3950 H   0  0  0  0  0  0  0  0  0  0  0  0
   -8.6993  -11.2098   -4.4340 H   0  0  0  0  0  0  0  0  0  0  0  0
  -10.3284  -12.6325   -1.3424 H   0  0  0  0  0  0  0  0  0  0  0  0
  -12.2765  -14.1290   -1.3382 H   0  0  0  0  0  0  0  0  0  0  0  0
  -12.4035  -14.0006   -5.6125 H   0  0  0  0  0  0  0  0  0  0  0  0
  -10.4625  -12.4951   -5.6338 H   0  0  0  0  0  0  0  0  0  0  0  0
  -14.4132  -14.4412   -5.2568 H   0  0  0  0  0  0  0  0  0  0  0  0
  -13.3288  -15.8507   -5.3317 H   0  0  0  0  0  0  0  0  0  0  0  0
  -14.9385  -16.0048   -4.5878 H   0  0  0  0  0  0  0  0  0  0  0  0
  1  2  1  0  0  0  0
  1 33  1  0  0  0  0
  1 34  1  0  0  0  0
  1 35  1  0  0  0  0
  2  6  1  0  0  0  0
  2  3  2  0  0  0  0
  3  4  1  0  0  0  0
  3 36  1  0  0  0  0
  4  5  2  0  0  0  0
  4  7  1  0  0  0  0
  5  6  1  0  0  0  0
  7  8  1  0  0  0  0
  8  9  2  0  0  0  0
  8 10  2  0  0  0  0
  8 11  1  0  0  0  0
 11 16  2  0  0  0  0
 11 12  1  0  0  0  0
 12 13  2  0  0  0  0
 12 37  1  0  0  0  0
 13 14  1  0  0  0  0
 13 38  1  0  0  0  0
 14 15  2  0  0  0  0
 14 17  1  0  0  0  0
 15 16  1  0  0  0  0
 15 39  1  0  0  0  0
 16 40  1  0  0  0  0
 17 18  1  0  0  0  0
 17 41  1  0  0  0  0
 18 19  2  0  0  0  0
 18 20  1  0  0  0  0
 20 21  1  0  0  0  0
 20 42  1  0  0  0  0
 21 22  2  0  0  0  0
 21 23  1  0  0  0  0
 23 24  2  0  0  0  0
 23 43  1  0  0  0  0
 24 25  1  0  0  0  0
 24 44  1  0  0  0  0
 25 30  2  0  0  0  0
 25 26  1  0  0  0  0
 26 27  2  0  0  0  0
 26 45  1  0  0  0  0
 27 28  1  0  0  0  0
 27 46  1  0  0  0  0
 28 29  2  0  0  0  0
 28 31  1  0  0  0  0
 29 30  1  0  0  0  0
 29 47  1  0  0  0  0
 30 48  1  0  0  0  0
 31 32  1  0  0  0  0
 32 49  1  0  0  0  0
 32 50  1  0  0  0  0
 32 51  1  0  0  0  0
M  END
$$$$
ZINC62326996
 OpenBabel01252620473D

 30 31  0  0  0  0  0  0  0  0999 V2000
   -3.7042    3.0735   -1.0483 C   0  0  0  0  0  0  0  0  0  0  0  0
   -2.4985    2.4809   -1.7313 C   0  0  0  0  0  0  0  0  0  0  0  0
   -1.9645    3.0778   -2.6566 O   0  5  0  0  0  0  0  0  0  0  0  0
   -1.9950    1.2612   -1.3118 C   0  0  0  0  0  0  0  0  0  0  0  0
   -0.8191    0.7733   -1.8566 C   0  0  0  0  0  0  0  0  0  0  0  0
   -0.2480    1.3991   -2.7396 O   0  0  0  0  0  0  0  0  0  0  0  0
   -0.2428   -0.5284   -1.3621 C   0  0  0  0  0  0  0  0  0  0  0  0
   -2.8504    0.3299   -0.0848 S   0  0  0  0  0  0  0  0  0  0  0  0
   -1.7602    0.3456    1.2993 C   0  0  0  0  0  0  0  0  0  0  0  0
   -0.6933    1.0733    1.2052 N   0  0  0  0  0  0  0  0  0  0  0  0
    0.3999    1.1466    2.4497 S   0  0  0  0  0  0  0  0  0  0  0  0
    1.6753    0.8595    1.8928 O   0  0  0  0  0  0  0  0  0  0  0  0
    0.1290    2.3450    3.1637 O   0  0  0  0  0  0  0  0  0  0  0  0
    0.0002   -0.1939    3.5243 C   0  0  0  0  0  0  0  0  0  0  0  0
    0.8803   -0.6017    4.5017 C   0  0  0  0  0  0  0  0  0  0  0  0
    0.5456   -1.6577    5.3317 C   0  0  0  0  0  0  0  0  0  0  0  0
   -0.6693   -2.3006    5.1778 C   0  0  0  0  0  0  0  0  0  0  0  0
   -1.5542   -1.8935    4.1993 C   0  0  0  0  0  0  0  0  0  0  0  0
   -1.2245   -0.8326    3.3641 C   0  0  0  0  0  0  0  0  0  0  0  0
   -2.1137   -0.4045    2.3802 N   0  0  0  0  0  2  0  0  0  0  0  0
   -3.5153    3.1475    0.0226 H   0  0  0  0  0  0  0  0  0  0  0  0
   -3.8990    4.0669   -1.4524 H   0  0  0  0  0  0  0  0  0  0  0  0
   -4.5702    2.4346   -1.2213 H   0  0  0  0  0  0  0  0  0  0  0  0
   -0.9338   -0.9861   -0.6542 H   0  0  0  0  0  0  0  0  0  0  0  0
   -0.0882   -1.2011   -2.2057 H   0  0  0  0  0  0  0  0  0  0  0  0
    0.7106   -0.3394   -0.8687 H   0  0  0  0  0  0  0  0  0  0  0  0
    1.8290   -0.0994    4.6200 H   0  0  0  0  0  0  0  0  0  0  0  0
    1.2334   -1.9799    6.0995 H   0  0  0  0  0  0  0  0  0  0  0  0
   -0.9268   -3.1253    5.8259 H   0  0  0  0  0  0  0  0  0  0  0  0
   -2.5014   -2.3990    4.0828 H   0  0  0  0  0  0  0  0  0  0  0  0
  1 21  1  0  0  0  0
  1 22  1  0  0  0  0
  1 23  1  0  0  0  0
  1  2  1  0  0  0  0
  2  4  2  0  0  0  0
  2  3  1  0  0  0  0
  4  8  1  0  0  0  0
  4  5  1  0  0  0  0
  5  7  1  0  0  0  0
  5  6  2  0  0  0  0
  7 24  1  0  0  0  0
  7 25  1  0  0  0  0
  7 26  1  0  0  0  0
  8  9  1  0  0  0  0
  9 20  1  0  0  0  0
  9 10  2  0  0  0  0
 10 11  1  0  0  0  0
 11 12  2  0  0  0  0
 11 13  2  0  0  0  0
 11 14  1  0  0  0  0
 14 19  2  0  0  0  0
 14 15  1  0  0  0  0
 15 16  2  0  0  0  0
 15 27  1  0  0  0  0
 16 17  1  0  0  0  0
 16 28  1  0  0  0  0
 17 18  2  0  0  0  0
 17 29  1  0  0  0  0
 18 19  1  0  0  0  0
 18 30  1  0  0  0  0
 19 20  1  0  0  0  0
M  CHG  1   3  -1
M  END
$$$$
ZINC13444917
 OpenBabel01252620473D

 56 59  0  0  0  0  0  0  0  0999 V2000
    1.1876    3.5587   -0.0720 C   0  0  0  0  0  0  0  0  0  0  0  0
    1.1924    2.0517   -0.0719 C   0  0  0  0  0  0  0  0  0  0  0  0
   -0.0191    1.3513   -0.0677 C   0  0  0  0  0  0  0  0  0  0  0  0
   -0.0001   -0.0073   -0.0677 C   0  0  0  0  0  0  0  0  0  0  0  0
    1.1967   -0.6502   -0.0716 N   0  0  0  0  0  0  0  0  0  0  0  0
    2.3621    0.0634   -0.0756 C   0  0  0  0  0  0  0  0  0  0  0  0
    2.3342    1.4011   -0.0767 N   0  0  0  0  0  0  0  0  0  0  0  0
    3.3625   -0.8112   -0.0781 N   0  0  0  0  0  0  0  0  0  0  0  0
    2.8758   -2.0502   -0.0759 C   0  0  0  0  0  0  0  0  0  0  0  0
    1.5586   -2.0037   -0.0720 N   0  0  0  0  0  0  0  0  0  0  0  0
    3.8422   -3.5235   -0.0780 S   0  0  0  0  0  0  0  0  0  0  0  0
    5.5546   -2.9251   -0.0835 C   0  0  0  0  0  0  0  0  0  0  0  0
    6.4976   -4.1006   -0.0857 C   0  0  0  0  0  0  0  0  0  0  0  0
    6.0577   -5.2309   -0.0837 O   0  0  0  0  0  0  0  0  0  0  0  0
    7.8297   -3.8959   -0.0899 N   0  0  0  0  0  0  0  0  0  0  0  0
    8.7059   -4.9848    0.0025 C   0  0  0  0  0  0  0  0  0  0  0  0
    8.3768   -6.1946   -0.5908 C   0  0  0  0  0  0  0  0  0  0  0  0
    9.2448   -7.2664   -0.5021 C   0  0  0  0  0  0  0  0  0  0  0  0
   10.4382   -7.1400    0.1853 C   0  0  0  0  0  0  0  0  0  0  0  0
   10.7718   -5.9399    0.7840 C   0  0  0  0  0  0  0  0  0  0  0  0
    9.9089   -4.8575    0.6960 C   0  0  0  0  0  0  0  0  0  0  0  0
   10.2447   -3.6403    1.3023 N   0  0  0  0  0  0  0  0  0  0  0  0
    9.8883   -3.2745    2.6782 C   0  0  0  0  0  0  0  0  0  0  0  0
   10.8153   -2.0909    3.0412 C   0  0  0  0  0  0  0  0  0  0  0  0
   11.1214   -1.4942    1.6479 C   0  0  0  0  0  0  0  0  0  0  0  0
   10.9298   -2.6550    0.6969 C   0  0  0  0  0  0  0  0  0  0  0  0
   11.3357   -2.6914   -0.4455 O   0  0  0  0  0  0  0  0  0  0  0  0
   -1.2880   -0.7898   -0.0638 C   0  0  0  0  0  0  0  0  0  0  0  0
   -1.3297    2.0952   -0.0696 C   0  0  0  0  0  0  0  0  0  0  0  0
   -1.7753    2.3470    1.3722 C   0  0  0  0  0  0  0  0  0  0  0  0
   -3.0859    3.0909    1.3703 C   0  0  0  0  0  0  0  0  0  0  0  0
   -3.6098    3.3891    0.3232 O   0  0  0  0  0  0  0  0  0  0  0  0
    1.1899    3.9222    0.9556 H   0  0  0  0  0  0  0  0  0  0  0  0
    2.0748    3.9248   -0.5889 H   0  0  0  0  0  0  0  0  0  0  0  0
    0.2948    3.9192   -0.5829 H   0  0  0  0  0  0  0  0  0  0  0  0
    5.7254   -2.3206   -0.9744 H   0  0  0  0  0  0  0  0  0  0  0  0
    5.7308   -2.3196    0.8056 H   0  0  0  0  0  0  0  0  0  0  0  0
    8.1817   -2.9945   -0.1568 H   0  0  0  0  0  0  0  0  0  0  0  0
    7.4439   -6.2981   -1.1250 H   0  0  0  0  0  0  0  0  0  0  0  0
    8.9887   -8.2066   -0.9679 H   0  0  0  0  0  0  0  0  0  0  0  0
   11.1112   -7.9818    0.2549 H   0  0  0  0  0  0  0  0  0  0  0  0
   11.7042   -5.8450    1.3206 H   0  0  0  0  0  0  0  0  0  0  0  0
    8.8435   -2.9681    2.7285 H   0  0  0  0  0  0  0  0  0  0  0  0
   10.0689   -4.1134    3.3504 H   0  0  0  0  0  0  0  0  0  0  0  0
   11.7276   -2.4390    3.5254 H   0  0  0  0  0  0  0  0  0  0  0  0
   10.2941   -1.3682    3.6691 H   0  0  0  0  0  0  0  0  0  0  0  0
   12.1485   -1.1317    1.6054 H   0  0  0  0  0  0  0  0  0  0  0  0
   10.4224   -0.6908    1.4150 H   0  0  0  0  0  0  0  0  0  0  0  0
   -1.6015   -0.9786   -1.0905 H   0  0  0  0  0  0  0  0  0  0  0  0
   -1.1349   -1.7391    0.4497 H   0  0  0  0  0  0  0  0  0  0  0  0
   -2.0591   -0.2178    0.4523 H   0  0  0  0  0  0  0  0  0  0  0  0
   -1.2056    3.0485   -0.5833 H   0  0  0  0  0  0  0  0  0  0  0  0
   -2.0843    1.5005   -0.5845 H   0  0  0  0  0  0  0  0  0  0  0  0
   -1.8994    1.3936    1.8859 H   0  0  0  0  0  0  0  0  0  0  0  0
   -1.0207    2.9416    1.8871 H   0  0  0  0  0  0  0  0  0  0  0  0
   -3.6712    3.4222    2.5319 O   0  0  0  0  0  1  0  0  0  0  0  0
  1  2  1  0  0  0  0
  1 33  1  0  0  0  0
  1 34  1  0  0  0  0
  1 35  1  0  0  0  0
  2  7  2  0  0  0  0
  2  3  1  0  0  0  0
  3  4  2  0  0  0  0
  3 29  1  0  0  0  0
  4  5  1  0  0  0  0
  4 28  1  0  0  0  0
  5 10  1  0  0  0  0
  5  6  1  0  0  0  0
  6  7  1  0  0  0  0
  6  8  2  0  0  0  0
  8  9  1  0  0  0  0
  9 10  2  0  0  0  0
  9 11  1  0  0  0  0
 11 12  1  0  0  0  0
 12 13  1  0  0  0  0
 12 36  1  0  0  0  0
 12 37  1  0  0  0  0
 13 14  2  0  0  0  0
 13 15  1  0  0  0  0
 15 16  1  0  0  0  0
 15 38  1  0  0  0  0
 16 21  2  0  0  0  0
 16 17  1  0  0  0  0
 17 18  2  0  0  0  0
 17 39  1  0  0  0  0
 18 19  1  0  0  0  0
 18 40  1  0  0  0  0
 19 20  2  0  0  0  0
 19 41  1  0  0  0  0
 20 21  1  0  0  0  0
 20 42  1  0  0  0  0
 21 22  1  0  0  0  0
 22 26  1  0  0  0  0
 22 23  1  0  0  0  0
 23 24  1  0  0  0  0
 23 43  1  0  0  0  0
 23 44  1  0  0  0  0
 24 25  1  0  0  0  0
 24 45  1  0  0  0  0
 24 46  1  0  0  0  0
 25 26  1  0  0  0  0
 25 47  1  0  0  0  0
 25 48  1  0  0  0  0
 26 27  2  0  0  0  0
 28 49  1  0  0  0  0
 28 50  1  0  0  0  0
 28 51  1  0  0  0  0
 29 30  1  0  0  0  0
 29 52  1  0  0  0  0
 29 53  1  0  0  0  0
 30 31  1  0  0  0  0
 30 54  1  0  0  0  0
 30 55  1  0  0  0  0
 31 32  2  0  0  0  0
 31 56  1  0  0  0  0
M  END
$$$$
ZINC62873739
 OpenBabel01252620473D

 37 37  0  0  1  0  0  0  0  0999 V2000
   -0.0187    1.5258    0.0104 C   0  0  0  0  0  0  0  0  0  0  0  0
    0.0021   -0.0041    0.0020 C   0  0  0  0  0  0  0  0  0  0  0  0
    0.7421   -0.5109    1.2415 C   0  0  2  0  0  0  0  0  0  0  0  0
    2.1792    0.0152    1.2292 C   0  0  0  0  0  0  0  0  0  0  0  0
    2.8842   -0.4517   -0.0464 C   0  0  0  0  0  0  0  0  0  0  0  0
    2.9296   -1.9827   -0.0688 C   0  0  0  0  0  0  0  0  0  0  0  0
    1.5630   -2.4987    0.0887 N   0  0  0  0  0  0  0  0  0  0  0  0
    0.7632   -2.0427    1.2337 C   0  0  0  0  0  0  0  0  0  0  0  0
    0.9357   -3.5735   -1.0039 S   0  0  0  0  0  0  0  0  0  0  0  0
   -0.4704   -3.3799   -0.9368 O   0  0  0  0  0  0  0  0  0  0  0  0
    1.6451   -3.3210   -2.2091 O   0  0  0  0  0  0  0  0  0  0  0  0
    1.3730   -5.2091   -0.3526 C   0  0  0  0  0  0  0  0  0  0  0  0
    0.8462   -6.2755   -1.2779 C   0  0  0  0  0  0  0  0  0  0  0  0
    0.2381   -5.9642   -2.2745 O   0  0  0  0  0  0  0  0  0  0  0  0
    1.0524   -7.5714   -0.9949 O   0  0  0  0  0  0  0  0  0  0  0  0
    0.5252   -8.5284   -1.9159 C   0  0  0  0  0  0  0  0  0  0  0  0
    0.0381   -0.0239    2.4818 C   0  0  0  0  0  0  0  0  0  0  0  0
   -0.9631    0.6650    2.3838 O   0  0  0  0  0  0  0  0  0  0  0  0
    0.4697   -0.3188    3.5833 O   0  0  0  0  0  1  0  0  0  0  0  0
    1.0039    1.9031    0.0027 H   0  0  0  0  0  0  0  0  0  0  0  0
   -0.5459    1.8868   -0.8726 H   0  0  0  0  0  0  0  0  0  0  0  0
   -0.5289    1.8773    0.9072 H   0  0  0  0  0  0  0  0  0  0  0  0
   -1.0205   -0.3814    0.0098 H   0  0  0  0  0  0  0  0  0  0  0  0
    0.5123   -0.3556   -0.8948 H   0  0  0  0  0  0  0  0  0  0  0  0
    2.1673    1.1047    1.2596 H   0  0  0  0  0  0  0  0  0  0  0  0
    2.7130   -0.3664    2.0996 H   0  0  0  0  0  0  0  0  0  0  0  0
    2.3368   -0.0911   -0.9173 H   0  0  0  0  0  0  0  0  0  0  0  0
    3.9001   -0.0572   -0.0657 H   0  0  0  0  0  0  0  0  0  0  0  0
    3.3411   -2.3222   -1.0193 H   0  0  0  0  0  0  0  0  0  0  0  0
    3.5524   -2.3419    0.7505 H   0  0  0  0  0  0  0  0  0  0  0  0
    1.2094   -2.4067    2.1592 H   0  0  0  0  0  0  0  0  0  0  0  0
   -0.2547   -2.4217    1.1426 H   0  0  0  0  0  0  0  0  0  0  0  0
    2.4573   -5.2936   -0.2808 H   0  0  0  0  0  0  0  0  0  0  0  0
    0.9324   -5.3360    0.6363 H   0  0  0  0  0  0  0  0  0  0  0  0
   -0.5565   -8.4116   -1.9818 H   0  0  0  0  0  0  0  0  0  0  0  0
    0.9684   -8.3691   -2.8989 H   0  0  0  0  0  0  0  0  0  0  0  0
    0.7616   -9.5345   -1.5694 H   0  0  0  0  0  0  0  0  0  0  0  0
  1  2  1  0  0  0  0
  1 20  1  0  0  0  0
  1 21  1  0  0  0  0
  1 22  1  0  0  0  0
  2  3  1  0  0  0  0
  2 23  1  0  0  0  0
  2 24  1  0  0  0  0
  3  8  1  0  0  0  0
  3  4  1  0  0  0  0
  3 17  1  1  0  0  0
  4  5  1  0  0  0  0
  4 25  1  0  0  0  0
  4 26  1  0  0  0  0
  5  6  1  0  0  0  0
  5 27  1  0  0  0  0
  5 28  1  0  0  0  0
  6  7  1  0  0  0  0
  6 29  1  0  0  0  0
  6 30  1  0  0  0  0
  7  8  1  0  0  0  0
  7  9  1  0  0  0  0
  8 31  1  0  0  0  0
  8 32  1  0  0  0  0
  9 10  2  0  0  0  0
  9 11  2  0  0  0  0
  9 12  1  0  0  0  0
 12 13  1  0  0  0  0
 12 33  1  0  0  0  0
 12 34  1  0  0  0  0
 13 14  2  0  0  0  0
 13 15  1  0  0  0  0
 15 16  1  0  0  0  0
 16 35  1  0  0  0  0
 16 36  1  0  0  0  0
 16 37  1  0  0  0  0
 17 18  2  0  0  0  0
 17 19  1  0  0  0  0
M  END
$$$$
ZINC41534688
 OpenBabel01252620473D

 59 62  0  0  1  0  0  0  0  0999 V2000
    1.3119    2.0166    0.2675 C   0  0  0  0  0  0  0  0  0  0  0  0
    2.3126    1.5256    1.2818 C   0  0  0  0  0  0  0  0  0  0  0  0
    3.5898    1.9249    1.4116 C   0  0  0  0  0  0  0  0  0  0  0  0
    4.1668    1.2470    2.4459 N   0  0  0  0  0  0  0  0  0  0  0  0
    5.0849    1.3592    2.7380 H   0  0  0  0  0  0  0  0  0  0  0  0
    3.2805    0.4002    3.0036 C   0  0  0  0  0  0  0  0  0  0  0  0
    2.0842    0.5221    2.3270 C   0  0  0  0  0  0  0  0  0  0  0  0
    0.8340   -0.2081    2.5975 C   0  0  0  0  0  0  0  0  0  0  0  0
   -0.1184   -0.0823    1.8496 O   0  0  0  0  0  0  0  0  0  0  0  0
    0.7363   -1.0870    3.7683 C   0  0  0  0  0  0  0  0  0  0  0  0
    0.5689   -0.7022    5.0541 C   0  0  0  0  0  0  0  0  0  0  0  0
    0.5213   -1.9002    5.9176 C   0  0  0  0  0  0  0  0  0  0  0  0
    0.3790   -1.8849    7.1242 O   0  0  0  0  0  0  0  0  0  0  0  0
    0.6581   -3.0107    5.1704 N   0  0  0  0  0  0  0  0  0  0  0  0
    0.7968   -2.5967    3.7691 C   0  0  1  0  0  0  0  0  0  0  0  0
    1.7553   -2.9336    3.3743 H   0  0  0  0  0  0  0  0  0  0  0  0
   -0.3314   -3.1610    2.9446 C   0  0  0  0  0  0  0  0  0  0  0  0
   -0.0707   -3.7236    1.7093 C   0  0  0  0  0  0  0  0  0  0  0  0
   -1.1052   -4.2413    0.9528 C   0  0  0  0  0  0  0  0  0  0  0  0
   -2.4019   -4.1970    1.4308 C   0  0  0  0  0  0  0  0  0  0  0  0
   -2.6649   -3.6355    2.6656 C   0  0  0  0  0  0  0  0  0  0  0  0
   -1.6285   -3.1213    3.4266 C   0  0  0  0  0  0  0  0  0  0  0  0
   -1.8838   -2.5762    4.6361 F   0  0  0  0  0  0  0  0  0  0  0  0
    0.6623   -4.3890    5.6668 C   0  0  0  0  0  0  0  0  0  0  0  0
   -0.7787   -4.8788    5.8240 C   0  0  0  0  0  0  0  0  0  0  0  0
   -0.7787   -6.2068    6.4520 N   0  0  0  0  0  0  0  0  0  0  0  0
   -0.1705   -7.2090    5.5649 C   0  0  0  0  0  0  0  0  0  0  0  0
   -0.1368   -8.5623    6.2801 C   0  0  0  0  0  0  0  0  0  0  0  0
   -1.4643   -8.9213    6.6729 O   0  0  0  0  0  0  0  0  0  0  0  0
   -2.0865   -7.9675    7.5379 C   0  0  0  0  0  0  0  0  0  0  0  0
   -2.1399   -6.6082    6.8355 C   0  0  0  0  0  0  0  0  0  0  0  0
    0.4618    0.5773    5.4818 O   0  5  0  0  0  0  0  0  0  0  0  0
    3.5477   -0.5180    4.1683 C   0  0  0  0  0  0  0  0  0  0  0  0
    4.2749    2.9556    0.5518 C   0  0  0  0  0  0  0  0  0  0  0  0
    0.7777    2.8767    0.6711 H   0  0  0  0  0  0  0  0  0  0  0  0
    1.8324    2.3076   -0.6449 H   0  0  0  0  0  0  0  0  0  0  0  0
    0.6020    1.2206    0.0428 H   0  0  0  0  0  0  0  0  0  0  0  0
    0.9417   -3.7584    1.3348 H   0  0  0  0  0  0  0  0  0  0  0  0
   -0.9006   -4.6804   -0.0124 H   0  0  0  0  0  0  0  0  0  0  0  0
   -3.2096   -4.6012    0.8385 H   0  0  0  0  0  0  0  0  0  0  0  0
   -3.6779   -3.6007    3.0385 H   0  0  0  0  0  0  0  0  0  0  0  0
    1.1882   -5.0288    4.9581 H   0  0  0  0  0  0  0  0  0  0  0  0
    1.1660   -4.4258    6.6327 H   0  0  0  0  0  0  0  0  0  0  0  0
   -1.3334   -4.1805    6.4508 H   0  0  0  0  0  0  0  0  0  0  0  0
   -1.2505   -4.9405    4.8434 H   0  0  0  0  0  0  0  0  0  0  0  0
   -0.7611   -7.2940    4.6528 H   0  0  0  0  0  0  0  0  0  0  0  0
    0.8457   -6.9044    5.3143 H   0  0  0  0  0  0  0  0  0  0  0  0
    0.2608   -9.3206    5.6056 H   0  0  0  0  0  0  0  0  0  0  0  0
    0.4976   -8.4914    7.1636 H   0  0  0  0  0  0  0  0  0  0  0  0
   -3.0990   -8.2956    7.7732 H   0  0  0  0  0  0  0  0  0  0  0  0
   -1.5088   -7.8793    8.4580 H   0  0  0  0  0  0  0  0  0  0  0  0
   -2.5615   -5.8650    7.5124 H   0  0  0  0  0  0  0  0  0  0  0  0
   -2.7621   -6.6836    5.9437 H   0  0  0  0  0  0  0  0  0  0  0  0
    3.3487    0.0104    5.1007 H   0  0  0  0  0  0  0  0  0  0  0  0
    2.8982   -1.3906    4.0995 H   0  0  0  0  0  0  0  0  0  0  0  0
    4.5895   -0.8379    4.1473 H   0  0  0  0  0  0  0  0  0  0  0  0
    4.1431    3.9432    0.9938 H   0  0  0  0  0  0  0  0  0  0  0  0
    5.3384    2.7257    0.4868 H   0  0  0  0  0  0  0  0  0  0  0  0
    3.8389    2.9435   -0.4471 H   0  0  0  0  0  0  0  0  0  0  0  0
  1  2  1  0  0  0  0
  1 35  1  0  0  0  0
  1 36  1  0  0  0  0
  1 37  1  0  0  0  0
  2  7  1  0  0  0  0
  2  3  2  0  0  0  0
  3  4  1  0  0  0  0
  3 34  1  0  0  0  0
  4  5  1  0  0  0  0
  4  6  1  0  0  0  0
  6  7  2  0  0  0  0
  6 33  1  0  0  0  0
  7  8  1  0  0  0  0
  8  9  2  0  0  0  0
  8 10  1  0  0  0  0
 10 15  1  0  0  0  0
 10 11  2  0  0  0  0
 11 12  1  0  0  0  0
 11 32  1  0  0  0  0
 12 13  2  0  0  0  0
 12 14  1  0  0  0  0
 14 15  1  0  0  0  0
 14 24  1  0  0  0  0
 15 16  1  6  0  0  0
 15 17  1  0  0  0  0
 17 22  2  0  0  0  0
 17 18  1  0  0  0  0
 18 19  2  0  0  0  0
 18 38  1  0  0  0  0
 19 20  1  0  0  0  0
 19 39  1  0  0  0  0
 20 21  2  0  0  0  0
 20 40  1  0  0  0  0
 21 22  1  0  0  0  0
 21 41  1  0  0  0  0
 22 23  1  0  0  0  0
 24 25  1  0  0  0  0
 24 42  1  0  0  0  0
 24 43  1  0  0  0  0
 25 26  1  0  0  0  0
 25 44  1  0  0  0  0
 25 45  1  0  0  0  0
 26 31  1  0  0  0  0
 26 27  1  0  0  0  0
 27 28  1  0  0  0  0
 27 46  1  0  0  0  0
 27 47  1  0  0  0  0
 28 29  1  0  0  0  0
 28 48  1  0  0  0  0
 28 49  1  0  0  0  0
 29 30  1  0  0  0  0
 30 31  1  0  0  0  0
 30 50  1  0  0  0  0
 30 51  1  0  0  0  0
 31 52  1  0  0  0  0
 31 53  1  0  0  0  0
 33 54  1  0  0  0  0
 33 55  1  0  0  0  0
 33 56  1  0  0  0  0
 34 57  1  0  0  0  0
 34 58  1  0  0  0  0
 34 59  1  0  0  0  0
M  CHG  1  32  -1
M  END
$$$$
ZINC33369577
 OpenBabel01252620473D

 19 19  0  0  0  0  0  0  0  0999 V2000
    5.5252    3.1478    1.0575 C   0  0  0  0  0  0  0  0  0  0  0  0
    4.2676    2.4268    1.1416 O   0  0  0  0  0  0  0  0  0  0  0  0
    3.6720    2.0984   -0.0212 C   0  0  0  0  0  0  0  0  0  0  0  0
    4.1889    2.4058   -1.0764 O   0  0  0  0  0  0  0  0  0  0  0  0
    2.3896    1.3641   -0.0129 C   0  0  0  0  0  0  0  0  0  0  0  0
    2.3593   -0.0479   -0.0202 C   0  0  0  0  0  0  0  0  0  0  0  0
    1.1257   -0.6929   -0.0124 C   0  0  0  0  0  0  0  0  0  0  0  0
    0.0021   -0.0041    0.0020 N   0  0  0  0  0  0  0  0  0  0  0  0
   -0.0158    1.3119    0.0093 C   0  0  0  0  0  0  0  0  0  0  0  0
    1.1671    2.0469    0.0019 C   0  0  0  0  0  0  0  0  0  0  0  0
    1.1356    3.4029    0.0090 O   0  5  0  0  0  0  0  0  0  0  0  0
    3.6152   -0.8270   -0.0354 C   0  0  0  0  0  0  0  0  0  0  0  0
    4.6857   -0.2533   -0.0421 O   0  0  0  0  0  0  0  0  0  0  0  0
    3.5726   -2.1734   -0.0418 O   0  0  0  0  0  1  0  0  0  0  0  0
    5.8997    3.3512    2.0716 H   0  0  0  0  0  0  0  0  0  0  0  0
    5.3680    4.0986    0.5271 H   0  0  0  0  0  0  0  0  0  0  0  0
    6.2605    2.5398    0.5101 H   0  0  0  0  0  0  0  0  0  0  0  0
    1.0888   -1.7723   -0.0178 H   0  0  0  0  0  0  0  0  0  0  0  0
   -0.9632    1.8303    0.0165 H   0  0  0  0  0  0  0  0  0  0  0  0
  1  2  1  0  0  0  0
  1 15  1  0  0  0  0
  1 16  1  0  0  0  0
  1 17  1  0  0  0  0
  2  3  1  0  0  0  0
  3  4  2  0  0  0  0
  3  5  1  0  0  0  0
  5 10  2  0  0  0  0
  5  6  1  0  0  0  0
  6  7  2  0  0  0  0
  6 12  1  0  0  0  0
  7  8  1  0  0  0  0
  7 18  1  0  0  0  0
  8  9  2  0  0  0  0
  9 10  1  0  0  0  0
  9 19  1  0  0  0  0
 10 11  1  0  0  0  0
 12 13  2  0  0  0  0
 12 14  1  0  0  0  0
M  CHG  1  11  -1
M  END
$$$$
ZINC39568451
 OpenBabel01252620473D

 42 43  0  0  1  0  0  0  0  0999 V2000
    0.1720    1.1755   -0.0784 C   0  0  0  0  0  0  0  0  0  0  0  0
    0.1099   -0.3507    0.0088 C   0  0  0  0  0  0  0  0  0  0  0  0
   -1.3300   -0.7951    0.0204 C   0  0  0  0  0  0  0  0  0  0  0  0
   -2.0740   -1.1923   -1.0292 C   0  0  0  0  0  0  0  0  0  0  0  0
   -3.3409   -1.5256   -0.6530 N   0  0  0  0  0  0  0  0  0  0  0  0
   -3.5528   -1.3911    0.6093 C   0  0  0  0  0  0  0  0  0  0  0  0
   -2.2554   -0.8986    1.2186 C   0  0  1  0  0  0  0  0  0  0  0  0
   -2.3959    0.0779    1.6821 H   0  0  0  0  0  0  0  0  0  0  0  0
   -1.7227   -1.8925    2.2184 C   0  0  0  0  0  0  0  0  0  0  0  0
   -1.7975   -1.6561    3.4121 O   0  0  0  0  0  0  0  0  0  0  0  0
   -1.2170   -2.9330    1.8335 O   0  0  0  0  0  1  0  0  0  0  0  0
   -4.8396   -1.6744    1.3407 C   0  0  0  0  0  0  0  0  0  0  0  0
   -5.9148   -2.0298    0.3464 C   0  0  0  0  0  0  0  0  0  0  0  0
   -6.6619   -1.2080   -0.3039 N   0  0  0  0  0  4  0  0  0  0  0  0
   -7.5484   -1.8231   -1.1367 C   0  0  0  0  0  0  0  0  0  0  0  0
   -7.4346   -3.1637   -1.0843 C   0  0  0  0  0  0  0  0  0  0  0  0
   -6.3214   -3.4242   -0.0866 C   0  0  2  0  0  0  0  0  0  0  0  0
   -5.4867   -3.9381   -0.5636 H   0  0  0  0  0  0  0  0  0  0  0  0
   -6.8363   -4.2172    1.0869 C   0  0  0  0  0  0  0  0  0  0  0  0
   -6.8533   -3.7185    2.1993 O   0  0  0  0  0  0  0  0  0  0  0  0
   -7.2359   -5.3575    0.9238 O   0  0  0  0  0  1  0  0  0  0  0  0
   -8.2350   -4.1833   -1.8530 C   0  0  0  0  0  0  0  0  0  0  0  0
   -7.4733   -4.5806   -3.1191 C   0  0  0  0  0  0  0  0  0  0  0  0
   -8.5147   -1.1076   -1.9904 C   0  0  0  0  0  0  0  0  0  0  0  0
   -9.2776   -1.7367   -2.7104 O   0  0  0  0  0  0  0  0  0  0  0  0
   -8.5532    0.1149   -1.9786 O   0  0  0  0  0  1  0  0  0  0  0  0
   -1.5785   -1.2586   -2.4164 C   0  0  0  0  0  0  0  0  0  0  0  0
   -0.4248   -0.9408   -2.6696 O   0  0  0  0  0  0  0  0  0  0  0  0
   -2.3212   -1.6313   -3.3140 O   0  0  0  0  0  1  0  0  0  0  0  0
    1.2135    1.4969   -0.0869 H   0  0  0  0  0  0  0  0  0  0  0  0
   -0.3181    1.5074   -0.9937 H   0  0  0  0  0  0  0  0  0  0  0  0
   -0.3352    1.6096    0.7832 H   0  0  0  0  0  0  0  0  0  0  0  0
    0.6171   -0.7848   -0.8529 H   0  0  0  0  0  0  0  0  0  0  0  0
    0.6000   -0.6826    0.9241 H   0  0  0  0  0  0  0  0  0  0  0  0
   -4.6910   -2.5069    2.0284 H   0  0  0  0  0  0  0  0  0  0  0  0
   -5.1412   -0.7895    1.9012 H   0  0  0  0  0  0  0  0  0  0  0  0
   -8.3924   -5.0651   -1.2319 H   0  0  0  0  0  0  0  0  0  0  0  0
   -9.1992   -3.7559   -2.1282 H   0  0  0  0  0  0  0  0  0  0  0  0
   -7.3159   -3.6988   -3.7402 H   0  0  0  0  0  0  0  0  0  0  0  0
   -6.5091   -5.0079   -2.8439 H   0  0  0  0  0  0  0  0  0  0  0  0
   -8.0522   -5.3180   -3.6751 H   0  0  0  0  0  0  0  0  0  0  0  0
   -6.6003   -0.2445   -0.2102 H   0  0  0  0  0  0  0  0  0  0  0  0
  1  2  1  0  0  0  0
  1 30  1  0  0  0  0
  1 31  1  0  0  0  0
  1 32  1  0  0  0  0
  2  3  1  0  0  0  0
  2 33  1  0  0  0  0
  2 34  1  0  0  0  0
  3  7  1  0  0  0  0
  3  4  2  0  0  0  0
  4  5  1  0  0  0  0
  4 27  1  0  0  0  0
  5  6  2  0  0  0  0
  6  7  1  0  0  0  0
  6 12  1  0  0  0  0
  7  8  1  1  0  0  0
  7  9  1  0  0  0  0
  9 10  2  0  0  0  0
  9 11  1  0  0  0  0
 12 13  1  0  0  0  0
 12 35  1  0  0  0  0
 12 36  1  0  0  0  0
 13 17  1  0  0  0  0
 13 14  2  0  0  0  0
 14 15  1  0  0  0  0
 14 42  1  0  0  0  0
 15 16  2  0  0  0  0
 15 24  1  0  0  0  0
 16 17  1  0  0  0  0
 16 22  1  0  0  0  0
 17 18  1  6  0  0  0
 17 19  1  0  0  0  0
 19 20  2  0  0  0  0
 19 21  1  0  0  0  0
 22 23  1  0  0  0  0
 22 37  1  0  0  0  0
 22 38  1  0  0  0  0
 23 39  1  0  0  0  0
 23 40  1  0  0  0  0
 23 41  1  0  0  0  0
 24 25  2  0  0  0  0
 24 26  1  0  0  0  0
 27 28  2  0  0  0  0
 27 29  1  0  0  0  0
M  END
$$$$
ZINC40351267
 OpenBabel01252620473D

 28 30  0  0  0  0  0  0  0  0999 V2000
   -0.0157    1.3067    0.0092 C   0  0  0  0  0  0  0  0  0  0  0  0
    1.1953    2.0321    0.0016 C   0  0  0  0  0  0  0  0  0  0  0  0
    2.4010    1.3225   -0.0138 C   0  0  0  0  0  0  0  0  0  0  0  0
    2.3559   -0.0364   -0.0207 N   0  0  0  0  0  0  0  0  0  0  0  0
    1.1548   -0.6889   -0.0127 C   0  0  0  0  0  0  0  0  0  0  0  0
    0.0021   -0.0041    0.0020 N   0  0  0  0  0  0  0  0  0  0  0  0
    1.4136   -1.9908   -0.0222 N   0  0  0  0  0  0  0  0  0  0  0  0
    2.7316   -2.1879   -0.0359 C   0  0  0  0  0  0  0  0  0  0  0  0
    3.3481   -1.0257   -0.0355 N   0  0  0  0  0  0  0  0  0  0  0  0
    3.3587   -3.4307   -0.0485 N   0  0  0  0  0  0  0  0  0  0  0  0
    4.8263   -3.5387   -0.0564 C   0  0  0  0  0  0  0  0  0  0  0  0
    5.2460   -4.5045    1.0575 C   0  0  0  0  0  0  0  0  0  0  0  0
    4.5187   -5.7275    0.9189 O   0  0  0  0  0  0  0  0  0  0  0  0
    3.1031   -5.5858    1.0598 C   0  0  0  0  0  0  0  0  0  0  0  0
    2.5737   -4.6754   -0.0483 C   0  0  0  0  0  0  0  0  0  0  0  0
    3.5822    1.9722   -0.0220 O   0  5  0  0  0  0  0  0  0  0  0  0
    1.1897    3.4992    0.0090 C   0  0  0  0  0  0  0  0  0  0  0  0
    2.2474    4.1153    0.0023 O   0  0  0  0  0  0  0  0  0  0  0  0
    0.1274    4.1071    0.0221 O   0  0  0  0  0  1  0  0  0  0  0  0
   -0.9588    1.8327    0.0256 H   0  0  0  0  0  0  0  0  0  0  0  0
    5.1610   -3.9222   -1.0202 H   0  0  0  0  0  0  0  0  0  0  0  0
    5.2674   -2.5581    0.1224 H   0  0  0  0  0  0  0  0  0  0  0  0
    6.3145   -4.7058    0.9814 H   0  0  0  0  0  0  0  0  0  0  0  0
    5.0269   -4.0587    2.0277 H   0  0  0  0  0  0  0  0  0  0  0  0
    2.6300   -6.5650    0.9854 H   0  0  0  0  0  0  0  0  0  0  0  0
    2.8763   -5.1439    2.0301 H   0  0  0  0  0  0  0  0  0  0  0  0
    1.5239   -4.4472    0.1359 H   0  0  0  0  0  0  0  0  0  0  0  0
    2.6778   -5.1752   -1.0113 H   0  0  0  0  0  0  0  0  0  0  0  0
  1  6  2  0  0  0  0
  1  2  1  0  0  0  0
  1 20  1  0  0  0  0
  2  3  2  0  0  0  0
  2 17  1  0  0  0  0
  3  4  1  0  0  0  0
  3 16  1  0  0  0  0
  4  9  1  0  0  0  0
  4  5  1  0  0  0  0
  5  6  1  0  0  0  0
  5  7  2  0  0  0  0
  7  8  1  0  0  0  0
  8  9  2  0  0  0  0
  8 10  1  0  0  0  0
 10 15  1  0  0  0  0
 10 11  1  0  0  0  0
 11 12  1  0  0  0  0
 11 21  1  0  0  0  0
 11 22  1  0  0  0  0
 12 13  1  0  0  0  0
 12 23  1  0  0  0  0
 12 24  1  0  0  0  0
 13 14  1  0  0  0  0
 14 15  1  0  0  0  0
 14 25  1  0  0  0  0
 14 26  1  0  0  0  0
 15 27  1  0  0  0  0
 15 28  1  0  0  0  0
 17 18  2  0  0  0  0
 17 19  1  0  0  0  0
M  CHG  1  16  -1
M  END
$$$$
ZINC21079721
 OpenBabel01252620473D

 47 49  0  0  0  0  0  0  0  0999 V2000
    8.1932   -6.4152    0.9296 C   0  0  0  0  0  0  0  0  0  0  0  0
    8.7939   -5.1959    0.2789 C   0  0  0  0  0  0  0  0  0  0  0  0
   10.1653   -5.0798    0.1610 C   0  0  0  0  0  0  0  0  0  0  0  0
   10.7171   -3.9619   -0.4367 C   0  0  0  0  0  0  0  0  0  0  0  0
    9.8986   -2.9564   -0.9183 C   0  0  0  0  0  0  0  0  0  0  0  0
    8.5267   -3.0686   -0.8078 C   0  0  0  0  0  0  0  0  0  0  0  0
    7.9694   -4.1880   -0.2032 C   0  0  0  0  0  0  0  0  0  0  0  0
    6.5798   -4.3025   -0.0852 N   0  0  0  0  0  0  0  0  0  0  0  0
    5.8110   -3.1956   -0.0747 C   0  0  0  0  0  0  0  0  0  0  0  0
    6.3277   -2.0983   -0.0663 O   0  0  0  0  0  0  0  0  0  0  0  0
    4.3092   -3.3212   -0.0732 C   0  0  0  0  0  0  0  0  0  0  0  0
    3.6807   -1.9263   -0.0605 C   0  0  0  0  0  0  0  0  0  0  0  0
    1.8730   -2.0776   -0.0588 S   0  0  0  0  0  0  0  0  0  0  0  0
    1.3057   -0.4095   -0.0439 C   0  0  0  0  0  0  0  0  0  0  0  0
    0.0009   -0.0052   -0.0383 N   0  0  0  0  0  0  0  0  0  0  0  0
   -0.0179    1.3619   -0.0276 C   0  0  0  0  0  0  0  0  0  0  0  0
    1.2233    1.7841   -0.0266 N   0  0  0  0  0  0  0  0  0  0  0  0
    2.0622    0.6621   -0.0369 N   0  0  0  0  0  0  0  0  0  0  0  0
   -1.1514    2.1618   -0.0245 N   0  0  0  0  0  0  0  0  0  0  0  0
   -1.0241    3.5570   -0.0132 N   0  0  0  0  0  0  0  0  0  0  0  0
   -2.0852    4.3058   -0.0102 C   0  0  0  0  0  0  0  0  0  0  0  0
   -1.9514    5.7734    0.0016 C   0  0  0  0  0  0  0  0  0  0  0  0
   -3.0903    6.5824    0.0048 C   0  0  0  0  0  0  0  0  0  0  0  0
   -2.9584    7.9561    0.0164 C   0  0  0  0  0  0  0  0  0  0  0  0
   -1.7005    8.5365    0.0249 C   0  0  0  0  0  0  0  0  0  0  0  0
   -0.5657    7.7456    0.0219 C   0  0  0  0  0  0  0  0  0  0  0  0
   -0.6812    6.3645    0.0156 C   0  0  0  0  0  0  0  0  0  0  0  0
    0.4331    5.5869    0.0183 O   0  5  0  0  0  0  0  0  0  0  0  0
    1.0054    8.4840    0.0326 Cl  0  0  0  0  0  0  0  0  0  0  0  0
   -4.3742    8.9606    0.0198 Cl  0  0  0  0  0  0  0  0  0  0  0  0
    8.9974   -7.0963    1.2449 H   0  0  0  0  0  0  0  0  0  0  0  0
    7.5382   -6.9292    0.2108 H   0  0  0  0  0  0  0  0  0  0  0  0
    7.6056   -6.1101    1.8080 H   0  0  0  0  0  0  0  0  0  0  0  0
   10.8071   -5.8634    0.5357 H   0  0  0  0  0  0  0  0  0  0  0  0
   11.7896   -3.8737   -0.5280 H   0  0  0  0  0  0  0  0  0  0  0  0
   10.3326   -2.0847   -1.3853 H   0  0  0  0  0  0  0  0  0  0  0  0
    7.8878   -2.2852   -1.1880 H   0  0  0  0  0  0  0  0  0  0  0  0
    6.1150   -5.2959   -0.0010 H   0  0  0  0  0  0  0  0  0  0  0  0
    3.9855   -3.8610   -0.9753 H   0  0  0  0  0  0  0  0  0  0  0  0
    3.9885   -3.8760    0.8209 H   0  0  0  0  0  0  0  0  0  0  0  0
    4.0043   -1.3865    0.8417 H   0  0  0  0  0  0  0  0  0  0  0  0
    4.0014   -1.3715   -0.9545 H   0  0  0  0  0  0  0  0  0  0  0  0
   -2.1501    1.7007   -0.0309 H   0  0  0  0  0  0  0  0  0  0  0  0
   -3.0838    3.8446   -0.0165 H   0  0  0  0  0  0  0  0  0  0  0  0
   -4.0726    6.1334   -0.0021 H   0  0  0  0  0  0  0  0  0  0  0  0
   -1.6054    9.6123    0.0344 H   0  0  0  0  0  0  0  0  0  0  0  0
    1.4372    2.8631   -0.0186 H   0  0  0  0  0  0  0  0  0  0  0  0
  1  2  1  0  0  0  0
  1 31  1  0  0  0  0
  1 32  1  0  0  0  0
  1 33  1  0  0  0  0
  2  7  2  0  0  0  0
  2  3  1  0  0  0  0
  3  4  2  0  0  0  0
  3 34  1  0  0  0  0
  4  5  1  0  0  0  0
  4 35  1  0  0  0  0
  5  6  2  0  0  0  0
  5 36  1  0  0  0  0
  6  7  1  0  0  0  0
  6 37  1  0  0  0  0
  7  8  1  0  0  0  0
  8  9  1  0  0  0  0
  8 38  1  0  0  0  0
  9 10  2  0  0  0  0
  9 11  1  0  0  0  0
 11 12  1  0  0  0  0
 11 39  1  0  0  0  0
 11 40  1  0  0  0  0
 12 13  1  0  0  0  0
 12 41  1  0  0  0  0
 12 42  1  0  0  0  0
 13 14  1  0  0  0  0
 14 18  2  0  0  0  0
 14 15  1  0  0  0  0
 15 16  2  0  0  0  0
 16 17  1  0  0  0  0
 16 19  1  0  0  0  0
 17 18  1  0  0  0  0
 17 47  1  0  0  0  0
 19 20  1  0  0  0  0
 19 43  1  0  0  0  0
 20 21  2  0  0  0  0
 21 22  1  0  0  0  0
 21 44  1  0  0  0  0
 22 27  2  0  0  0  0
 22 23  1  0  0  0  0
 23 24  2  0  0  0  0
 23 45  1  0  0  0  0
 24 25  1  0  0  0  0
 24 30  1  0  0  0  0
 25 26  2  0  0  0  0
 25 46  1  0  0  0  0
 26 27  1  0  0  0  0
 26 29  1  0  0  0  0
 27 28  1  0  0  0  0
M  CHG  1  28  -1
M  END
$$$$
ZINC13079732
 OpenBabel01252620473D

 38 40  0  0  0  0  0  0  0  0999 V2000
    2.6092    4.2199    0.8621 C   0  0  0  0  0  0  0  0  0  0  0  0
    3.6167    3.4677    0.2466 C   0  0  0  0  0  0  0  0  0  0  0  0
    3.3718    2.1349   -0.1050 C   0  0  0  0  0  0  0  0  0  0  0  0
    2.1416    1.5706    0.1548 C   0  0  0  0  0  0  0  0  0  0  0  0
    1.1410    2.3194    0.7652 C   0  0  0  0  0  0  0  0  0  0  0  0
    1.3787    3.6453    1.1199 C   0  0  0  0  0  0  0  0  0  0  0  0
    0.4102    4.3894    1.7217 O   0  0  0  0  0  0  0  0  0  0  0  0
   -0.9310    3.8976    1.6268 C   0  0  0  0  0  0  0  0  0  0  0  0
   -0.9167    2.3983    1.9539 C   0  0  0  0  0  0  0  0  0  0  0  0
   -0.0664    1.7411    1.0082 O   0  0  0  0  0  0  0  0  0  0  0  0
    1.8396   -0.0823   -0.2818 Cl  0  0  0  0  0  0  0  0  0  0  0  0
    4.9251    4.0743   -0.0297 C   0  0  0  0  0  0  0  0  0  0  0  0
    4.9995    5.3568   -0.4685 C   0  0  0  0  0  0  0  0  0  0  0  0
    3.9192    6.2739   -0.8835 C   0  0  0  0  0  0  0  0  0  0  0  0
    2.7509    5.9330   -0.8703 O   0  0  0  0  0  0  0  0  0  0  0  0
    4.2854    7.4842   -1.2705 N   0  0  0  0  0  0  0  0  0  0  0  0
    5.5811    7.8579   -1.2835 C   0  0  0  0  0  0  0  0  0  0  0  0
    6.2483    9.3654   -1.7451 S   0  0  0  0  0  0  0  0  0  0  0  0
    6.4317    6.4022   -0.6955 S   0  0  0  0  0  0  0  0  0  0  0  0
    3.2601    8.4410   -1.6942 C   0  0  0  0  0  0  0  0  0  0  0  0
    2.7815    9.2451   -0.4837 C   0  0  0  0  0  0  0  0  0  0  0  0
    1.7108   10.2444   -0.9263 C   0  0  0  0  0  0  0  0  0  0  0  0
    1.2394   11.0364    0.2660 C   0  0  0  0  0  0  0  0  0  0  0  0
    1.7114   10.8235    1.3576 O   0  0  0  0  0  0  0  0  0  0  0  0
    2.7934    5.2483    1.1357 H   0  0  0  0  0  0  0  0  0  0  0  0
    4.1460    1.5497   -0.5788 H   0  0  0  0  0  0  0  0  0  0  0  0
   -1.3076    4.0497    0.6152 H   0  0  0  0  0  0  0  0  0  0  0  0
   -1.5673    4.4232    2.3388 H   0  0  0  0  0  0  0  0  0  0  0  0
   -1.9273    1.9965    1.8808 H   0  0  0  0  0  0  0  0  0  0  0  0
   -0.5324    2.2451    2.9623 H   0  0  0  0  0  0  0  0  0  0  0  0
    5.8282    3.5002    0.1162 H   0  0  0  0  0  0  0  0  0  0  0  0
    3.6805    9.1186   -2.4374 H   0  0  0  0  0  0  0  0  0  0  0  0
    2.4179    7.9025   -2.1287 H   0  0  0  0  0  0  0  0  0  0  0  0
    2.3612    8.5676    0.2594 H   0  0  0  0  0  0  0  0  0  0  0  0
    3.6237    9.7837   -0.0493 H   0  0  0  0  0  0  0  0  0  0  0  0
    2.1311   10.9220   -1.6695 H   0  0  0  0  0  0  0  0  0  0  0  0
    0.8686    9.7059   -1.3608 H   0  0  0  0  0  0  0  0  0  0  0  0
    0.2951   11.9785    0.1152 O   0  0  0  0  0  1  0  0  0  0  0  0
  1  6  2  0  0  0  0
  1  2  1  0  0  0  0
  1 25  1  0  0  0  0
  2  3  2  0  0  0  0
  2 12  1  0  0  0  0
  3  4  1  0  0  0  0
  3 26  1  0  0  0  0
  4  5  2  0  0  0  0
  4 11  1  0  0  0  0
  5 10  1  0  0  0  0
  5  6  1  0  0  0  0
  6  7  1  0  0  0  0
  7  8  1  0  0  0  0
  8  9  1  0  0  0  0
  8 27  1  0  0  0  0
  8 28  1  0  0  0  0
  9 10  1  0  0  0  0
  9 29  1  0  0  0  0
  9 30  1  0  0  0  0
 12 13  2  0  0  0  0
 12 31  1  0  0  0  0
 13 19  1  0  0  0  0
 13 14  1  0  0  0  0
 14 15  2  0  0  0  0
 14 16  1  0  0  0  0
 16 17  1  0  0  0  0
 16 20  1  0  0  0  0
 17 18  2  0  0  0  0
 17 19  1  0  0  0  0
 20 21  1  0  0  0  0
 20 32  1  0  0  0  0
 20 33  1  0  0  0  0
 21 22  1  0  0  0  0
 21 34  1  0  0  0  0
 21 35  1  0  0  0  0
 22 23  1  0  0  0  0
 22 36  1  0  0  0  0
 22 37  1  0  0  0  0
 23 24  2  0  0  0  0
 23 38  1  0  0  0  0
M  END
$$$$
ZINC62869031
 OpenBabel01252620473D

 37 38  0  0  1  0  0  0  0  0999 V2000
    0.5956    2.5856    0.0411 C   0  0  0  0  0  0  0  0  0  0  0  0
    0.2308    1.1317   -0.2654 C   0  0  1  0  0  0  0  0  0  0  0  0
    0.9516    0.6816   -1.5382 C   0  0  0  0  0  0  0  0  0  0  0  0
    2.4632    0.8286   -1.3495 C   0  0  0  0  0  0  0  0  0  0  0  0
    2.9189   -0.0672   -0.1934 C   0  0  0  0  0  0  0  0  0  0  0  0
    2.1272    0.2613    0.9999 N   0  0  0  0  0  0  0  0  0  0  0  0
    0.6612    0.2393    0.9031 C   0  0  0  0  0  0  0  0  0  0  0  0
    2.7340    0.5764    2.1613 C   0  0  0  0  0  0  0  0  0  0  0  0
    3.9409    0.5016    2.2547 O   0  0  0  0  0  0  0  0  0  0  0  0
    1.9129    1.0217    3.3439 C   0  0  1  0  0  0  0  0  0  0  0  0
    1.0591    1.6018    2.9936 H   0  0  0  0  0  0  0  0  0  0  0  0
    1.4111   -0.2129    4.1109 C   0  0  0  0  0  0  0  0  0  0  0  0
    0.8444    0.2639    5.4787 C   0  0  0  0  0  0  0  0  0  0  0  0
    2.0975    1.5341    5.9384 S   0  0  0  0  0  0  0  0  0  0  0  0
    1.4280    2.6882    6.4274 O   0  0  0  0  0  0  0  0  0  0  0  0
    3.1063    0.9227    6.7307 O   0  0  0  0  0  0  0  0  0  0  0  0
    2.7846    1.9004    4.2731 C   0  0  0  0  0  0  0  0  0  0  0  0
   -1.2588    1.0178   -0.4631 C   0  0  0  0  0  0  0  0  0  0  0  0
   -1.8064    1.6515   -1.3491 O   0  0  0  0  0  0  0  0  0  0  0  0
   -1.9164    0.2919    0.2630 O   0  0  0  0  0  1  0  0  0  0  0  0
    1.6732    2.6677    0.1829 H   0  0  0  0  0  0  0  0  0  0  0  0
    0.2892    3.2201   -0.7905 H   0  0  0  0  0  0  0  0  0  0  0  0
    0.0843    2.9048    0.9493 H   0  0  0  0  0  0  0  0  0  0  0  0
    0.7109   -0.3617   -1.7423 H   0  0  0  0  0  0  0  0  0  0  0  0
    0.6285    1.2993   -2.3762 H   0  0  0  0  0  0  0  0  0  0  0  0
    2.9748    0.5300   -2.2645 H   0  0  0  0  0  0  0  0  0  0  0  0
    2.7021    1.8672   -1.1210 H   0  0  0  0  0  0  0  0  0  0  0  0
    2.7637   -1.1131   -0.4584 H   0  0  0  0  0  0  0  0  0  0  0  0
    3.9755    0.1075    0.0097 H   0  0  0  0  0  0  0  0  0  0  0  0
    0.2282    0.6163    1.8296 H   0  0  0  0  0  0  0  0  0  0  0  0
    0.3219   -0.7815    0.7275 H   0  0  0  0  0  0  0  0  0  0  0  0
    0.6257   -0.7074    3.5393 H   0  0  0  0  0  0  0  0  0  0  0  0
    2.2371   -0.9048    4.2757 H   0  0  0  0  0  0  0  0  0  0  0  0
   -0.1437    0.7091    5.3624 H   0  0  0  0  0  0  0  0  0  0  0  0
    0.8248   -0.5506    6.2028 H   0  0  0  0  0  0  0  0  0  0  0  0
    3.8321    1.6049    4.2135 H   0  0  0  0  0  0  0  0  0  0  0  0
    2.6654    2.9563    4.0304 H   0  0  0  0  0  0  0  0  0  0  0  0
  1  2  1  0  0  0  0
  1 21  1  0  0  0  0
  1 22  1  0  0  0  0
  1 23  1  0  0  0  0
  2  7  1  0  0  0  0
  2  3  1  0  0  0  0
  2 18  1  6  0  0  0
  3  4  1  0  0  0  0
  3 24  1  0  0  0  0
  3 25  1  0  0  0  0
  4  5  1  0  0  0  0
  4 26  1  0  0  0  0
  4 27  1  0  0  0  0
  5  6  1  0  0  0  0
  5 28  1  0  0  0  0
  5 29  1  0  0  0  0
  6  7  1  0  0  0  0
  6  8  1  0  0  0  0
  7 30  1  0  0  0  0
  7 31  1  0  0  0  0
  8  9  2  0  0  0  0
  8 10  1  0  0  0  0
 10 11  1  6  0  0  0
 10 17  1  0  0  0  0
 10 12  1  0  0  0  0
 12 13  1  0  0  0  0
 12 32  1  0  0  0  0
 12 33  1  0  0  0  0
 13 14  1  0  0  0  0
 13 34  1  0  0  0  0
 13 35  1  0  0  0  0
 14 15  2  0  0  0  0
 14 16  2  0  0  0  0
 14 17  1  0  0  0  0
 17 36  1  0  0  0  0
 17 37  1  0  0  0  0
 18 19  2  0  0  0  0
 18 20  1  0  0  0  0
M  END
$$$$
ZINC19285684
 OpenBabel01252620473D

 49 52  0  0  1  0  0  0  0  0999 V2000
   -0.0282    1.3808    0.0006 C   0  0  0  0  0  0  0  0  0  0  0  0
    1.1562    2.1134   -0.0036 C   0  0  0  0  0  0  0  0  0  0  0  0
    2.3673    1.4916   -0.0090 C   0  0  0  0  0  0  0  0  0  0  0  0
    2.4297    0.0872   -0.0104 C   0  0  0  0  0  0  0  0  0  0  0  0
    1.2222   -0.6525   -0.0060 C   0  0  0  0  0  0  0  0  0  0  0  0
   -0.0056    0.0173   -0.0006 C   0  0  0  0  0  0  0  0  0  0  0  0
    1.2996   -2.1146   -0.0074 C   0  0  0  0  0  0  0  0  0  0  0  0
    2.5730   -2.6847   -0.0130 C   0  0  0  0  0  0  0  0  0  0  0  0
    3.6894   -1.8614   -0.0169 C   0  0  0  0  0  0  0  0  0  0  0  0
    3.6027   -0.5535   -0.0152 N   0  0  0  0  0  0  0  0  0  0  0  0
    0.0873   -2.9463   -0.0027 C   0  0  0  0  0  0  0  0  0  0  0  0
   -1.0821   -2.3900    0.1086 N   0  0  0  0  0  0  0  0  0  0  0  0
   -2.2373   -3.1826    0.1131 N   0  0  0  0  0  0  0  0  0  0  0  0
   -3.4772   -2.5928    0.2311 C   0  0  0  0  0  0  0  0  0  0  0  0
   -3.5751   -1.2967    0.3386 N   0  0  0  0  0  4  0  0  0  0  0  0
   -4.9301   -3.5897    0.2368 S   0  0  0  0  0  0  0  0  0  0  0  0
   -6.2826   -2.3931    0.4090 C   0  0  2  0  0  0  0  0  0  0  0  0
   -6.1246   -1.7604    1.2823 H   0  0  0  0  0  0  0  0  0  0  0  0
   -7.6404   -3.1185    0.5027 C   0  0  0  0  0  0  0  0  0  0  0  0
   -8.3965   -2.6134   -0.7067 C   0  0  0  0  0  0  0  0  0  0  0  0
   -9.5234   -2.9364   -1.0156 O   0  0  0  0  0  0  0  0  0  0  0  0
   -7.6240   -1.7530   -1.3814 N   0  0  0  0  0  0  0  0  0  0  0  0
   -6.4116   -1.5516   -0.8420 C   0  0  0  0  0  0  0  0  0  0  0  0
   -5.5560   -0.8155   -1.2844 O   0  0  0  0  0  0  0  0  0  0  0  0
   -8.0472   -1.1124   -2.5549 C   0  0  0  0  0  0  0  0  0  0  0  0
   -9.0972   -0.2032   -2.5099 C   0  0  0  0  0  0  0  0  0  0  0  0
   -9.5186    0.4319   -3.6633 C   0  0  0  0  0  0  0  0  0  0  0  0
   -8.8996    0.1674   -4.8678 C   0  0  0  0  0  0  0  0  0  0  0  0
   -7.8431   -0.7450   -4.9240 C   0  0  0  0  0  0  0  0  0  0  0  0
   -7.4148   -1.3819   -3.7574 C   0  0  0  0  0  0  0  0  0  0  0  0
   -7.1787   -1.0304   -6.2102 C   0  0  0  0  0  0  0  0  0  0  0  0
   -7.5526   -0.4679   -7.2297 O   0  0  0  0  0  0  0  0  0  0  0  0
   -6.2541   -1.8295   -6.2568 O   0  0  0  0  0  1  0  0  0  0  0  0
   -0.9759    1.8987    0.0095 H   0  0  0  0  0  0  0  0  0  0  0  0
    1.1132    3.1926   -0.0029 H   0  0  0  0  0  0  0  0  0  0  0  0
    3.2763    2.0749   -0.0126 H   0  0  0  0  0  0  0  0  0  0  0  0
   -0.9297   -0.5417    0.0030 H   0  0  0  0  0  0  0  0  0  0  0  0
    2.6886   -3.7585   -0.0139 H   0  0  0  0  0  0  0  0  0  0  0  0
    4.6690   -2.3161   -0.0209 H   0  0  0  0  0  0  0  0  0  0  0  0
    0.1684   -4.0196   -0.0917 H   0  0  0  0  0  0  0  0  0  0  0  0
   -2.1644   -4.1466    0.0332 H   0  0  0  0  0  0  0  0  0  0  0  0
   -4.4479   -0.8816    0.4216 H   0  0  0  0  0  0  0  0  0  0  0  0
   -7.5031   -4.1983    0.4459 H   0  0  0  0  0  0  0  0  0  0  0  0
   -8.1591   -2.8445    1.4214 H   0  0  0  0  0  0  0  0  0  0  0  0
   -9.5861    0.0079   -1.5703 H   0  0  0  0  0  0  0  0  0  0  0  0
  -10.3355    1.1372   -3.6215 H   0  0  0  0  0  0  0  0  0  0  0  0
   -9.2320    0.6653   -5.7667 H   0  0  0  0  0  0  0  0  0  0  0  0
   -6.5960   -2.0852   -3.7933 H   0  0  0  0  0  0  0  0  0  0  0  0
   -2.7753   -0.7480    0.3354 H   0  0  0  0  0  0  0  0  0  0  0  0
  1  6  2  0  0  0  0
  1  2  1  0  0  0  0
  1 34  1  0  0  0  0
  2  3  2  0  0  0  0
  2 35  1  0  0  0  0
  3  4  1  0  0  0  0
  3 36  1  0  0  0  0
  4 10  2  0  0  0  0
  4  5  1  0  0  0  0
  5  6  1  0  0  0  0
  5  7  2  0  0  0  0
  6 37  1  0  0  0  0
  7  8  1  0  0  0  0
  7 11  1  0  0  0  0
  8  9  2  0  0  0  0
  8 38  1  0  0  0  0
  9 10  1  0  0  0  0
  9 39  1  0  0  0  0
 11 12  2  0  0  0  0
 11 40  1  0  0  0  0
 12 13  1  0  0  0  0
 13 14  1  0  0  0  0
 13 41  1  0  0  0  0
 14 15  2  0  0  0  0
 14 16  1  0  0  0  0
 15 42  1  0  0  0  0
 15 49  1  0  0  0  0
 16 17  1  0  0  0  0
 17 18  1  1  0  0  0
 17 23  1  0  0  0  0
 17 19  1  0  0  0  0
 19 20  1  0  0  0  0
 19 43  1  0  0  0  0
 19 44  1  0  0  0  0
 20 21  2  0  0  0  0
 20 22  1  0  0  0  0
 22 23  1  0  0  0  0
 22 25  1  0  0  0  0
 23 24  2  0  0  0  0
 25 30  2  0  0  0  0
 25 26  1  0  0  0  0
 26 27  2  0  0  0  0
 26 45  1  0  0  0  0
 27 28  1  0  0  0  0
 27 46  1  0  0  0  0
 28 29  2  0  0  0  0
 28 47  1  0  0  0  0
 29 30  1  0  0  0  0
 29 31  1  0  0  0  0
 30 48  1  0  0  0  0
 31 32  2  0  0  0  0
 31 33  1  0  0  0  0
M  END
$$$$
ZINC37742344
 OpenBabel01252620473D

 27 28  0  0  0  0  0  0  0  0999 V2000
   -0.0285    1.4556    0.0262 C   0  0  0  0  0  0  0  0  0  0  0  0
    1.0703    2.0043   -0.5969 C   0  0  0  0  0  0  0  0  0  0  0  0
    2.2807    1.3040   -0.6211 C   0  0  0  0  0  0  0  0  0  0  0  0
    2.3648    0.0426   -0.0073 C   0  0  0  0  0  0  0  0  0  0  0  0
    1.2465   -0.4939    0.6157 C   0  0  0  0  0  0  0  0  0  0  0  0
    0.0579    0.2103    0.6310 C   0  0  0  0  0  0  0  0  0  0  0  0
   -1.4605   -0.5279    1.4825 Br  0  0  0  0  0  0  0  0  0  0  0  0
    3.5619   -0.6646   -0.0245 N   0  0  0  0  0  0  0  0  0  0  0  0
    3.5491   -2.0091   -0.1173 C   0  0  0  0  0  0  0  0  0  0  0  0
    2.4989   -2.5965   -0.2823 O   0  0  0  0  0  0  0  0  0  0  0  0
    4.8195   -2.7725   -0.0177 C   0  0  0  0  0  0  0  0  0  0  0  0
    4.8102   -4.1500   -0.1181 C   0  0  0  0  0  0  0  0  0  0  0  0
    6.0372   -4.8428   -0.0187 C   0  0  0  0  0  0  0  0  0  0  0  0
    6.0730   -6.0588   -0.1024 O   0  0  0  0  0  0  0  0  0  0  0  0
    7.1692   -4.1324    0.1702 N   0  0  0  0  0  0  0  0  0  0  0  0
    8.0217   -4.5897    0.2410 H   0  0  0  0  0  0  0  0  0  0  0  0
    7.1165   -2.7783    0.2609 C   0  0  0  0  0  0  0  0  0  0  0  0
    8.2588   -2.0857    0.4490 O   0  5  0  0  0  0  0  0  0  0  0  0
    5.9800   -2.1270    0.1644 N   0  0  0  0  0  0  0  0  0  0  0  0
    3.4580    1.8839   -1.2852 C   0  0  0  0  0  0  0  0  0  0  0  0
    3.3579    2.9391   -1.8963 O   0  0  0  0  0  0  0  0  0  0  0  0
    4.5376    1.3110   -1.2264 O   0  0  0  0  0  1  0  0  0  0  0  0
   -0.9611    1.9997    0.0479 H   0  0  0  0  0  0  0  0  0  0  0  0
    0.9973    2.9741   -1.0665 H   0  0  0  0  0  0  0  0  0  0  0  0
    1.3055   -1.4629    1.0889 H   0  0  0  0  0  0  0  0  0  0  0  0
    4.4062   -0.1902    0.0304 H   0  0  0  0  0  0  0  0  0  0  0  0
    3.8848   -4.6859   -0.2690 H   0  0  0  0  0  0  0  0  0  0  0  0
  1  6  2  0  0  0  0
  1  2  1  0  0  0  0
  1 23  1  0  0  0  0
  2  3  2  0  0  0  0
  2 24  1  0  0  0  0
  3  4  1  0  0  0  0
  3 20  1  0  0  0  0
  4  5  2  0  0  0  0
  4  8  1  0  0  0  0
  5  6  1  0  0  0  0
  5 25  1  0  0  0  0
  6  7  1  0  0  0  0
  8  9  1  0  0  0  0
  8 26  1  0  0  0  0
  9 10  2  0  0  0  0
  9 11  1  0  0  0  0
 11 19  1  0  0  0  0
 11 12  2  0  0  0  0
 12 13  1  0  0  0  0
 12 27  1  0  0  0  0
 13 14  2  0  0  0  0
 13 15  1  0  0  0  0
 15 16  1  0  0  0  0
 15 17  1  0  0  0  0
 17 18  1  0  0  0  0
 17 19  2  0  0  0  0
 20 21  2  0  0  0  0
 20 22  1  0  0  0  0
M  CHG  1  18  -1
M  END
$$$$
ZINC00299186
 OpenBabel01252620473D

 28 30  0  0  1  0  0  0  0  0999 V2000
   -2.0713   -6.3788    1.3254 C   0  0  0  0  0  0  0  0  0  0  0  0
   -3.0601   -5.2606    0.9895 C   0  0  0  0  0  0  0  0  0  0  0  0
   -2.3544   -4.1738    0.3061 N   0  0  0  0  0  0  0  0  0  0  0  0
   -2.1795   -4.0765   -1.1631 C   0  0  0  0  0  0  0  0  0  0  0  0
   -1.8243   -2.6406   -1.3913 C   0  0  1  0  0  0  0  0  0  0  0  0
   -1.0208   -2.1401   -2.5377 C   0  0  0  0  0  0  0  0  0  0  0  0
   -1.1699   -0.8110   -2.4736 C   0  0  0  0  0  0  0  0  0  0  0  0
   -2.1075   -0.5137   -1.2977 C   0  0  1  0  0  0  0  0  0  0  0  0
   -2.6378    0.4377   -1.3376 H   0  0  0  0  0  0  0  0  0  0  0  0
   -2.9489   -1.7235   -1.3184 O   0  0  0  0  0  0  0  0  0  0  0  0
   -1.2926   -0.7753    0.0102 C   0  0  1  0  0  0  0  0  0  0  0  0
   -1.8836   -0.5317    0.8931 H   0  0  0  0  0  0  0  0  0  0  0  0
   -1.0320   -2.2897   -0.0772 C   0  0  1  0  0  0  0  0  0  0  0  0
    0.0293   -2.5313   -0.1361 H   0  0  0  0  0  0  0  0  0  0  0  0
   -1.7727   -3.1193    0.9321 C   0  0  0  0  0  0  0  0  0  0  0  0
   -1.8398   -2.8841    2.1200 O   0  0  0  0  0  0  0  0  0  0  0  0
    0.0021   -0.0041    0.0020 C   0  0  0  0  0  0  0  0  0  0  0  0
    1.0565   -0.5939   -0.0112 O   0  0  0  0  0  0  0  0  0  0  0  0
   -1.6246   -6.7572    0.4059 H   0  0  0  0  0  0  0  0  0  0  0  0
   -1.2885   -5.9884    1.9757 H   0  0  0  0  0  0  0  0  0  0  0  0
   -2.5963   -7.1875    1.8338 H   0  0  0  0  0  0  0  0  0  0  0  0
   -3.5068   -4.8823    1.9089 H   0  0  0  0  0  0  0  0  0  0  0  0
   -3.8429   -5.6511    0.3391 H   0  0  0  0  0  0  0  0  0  0  0  0
   -3.1082   -4.3266   -1.6759 H   0  0  0  0  0  0  0  0  0  0  0  0
   -1.3720   -4.7277   -1.4978 H   0  0  0  0  0  0  0  0  0  0  0  0
   -0.4508   -2.7136   -3.2537 H   0  0  0  0  0  0  0  0  0  0  0  0
   -0.7145   -0.0834   -3.1290 H   0  0  0  0  0  0  0  0  0  0  0  0
   -0.0161    1.3381    0.0094 O   0  0  0  0  0  1  0  0  0  0  0  0
  1  2  1  0  0  0  0
  1 19  1  0  0  0  0
  1 20  1  0  0  0  0
  1 21  1  0  0  0  0
  2  3  1  0  0  0  0
  2 22  1  0  0  0  0
  2 23  1  0  0  0  0
  3 15  1  0  0  0  0
  3  4  1  0  0  0  0
  4  5  1  0  0  0  0
  4 24  1  0  0  0  0
  4 25  1  0  0  0  0
  5 10  1  1  0  0  0
  5 13  1  0  0  0  0
  5  6  1  0  0  0  0
  6  7  2  0  0  0  0
  6 26  1  0  0  0  0
  7  8  1  0  0  0  0
  7 27  1  0  0  0  0
  8  9  1  6  0  0  0
  8 10  1  0  0  0  0
  8 11  1  0  0  0  0
 11 12  1  1  0  0  0
 11 13  1  0  0  0  0
 11 17  1  0  0  0  0
 13 14  1  6  0  0  0
 13 15  1  0  0  0  0
 15 16  2  0  0  0  0
 17 18  2  0  0  0  0
 17 28  1  0  0  0  0
M  END
$$$$
ZINC13232621
 OpenBabel01252620473D

 43 45  0  0  0  0  0  0  0  0999 V2000
    3.9930    9.8147    4.5510 C   0  0  0  0  0  0  0  0  0  0  0  0
    4.5862    9.9818    3.3162 C   0  0  0  0  0  0  0  0  0  0  0  0
    4.2093    9.1692    2.2451 C   0  0  0  0  0  0  0  0  0  0  0  0
    3.2324    8.1898    2.4287 C   0  0  0  0  0  0  0  0  0  0  0  0
    2.6431    8.0303    3.6728 C   0  0  0  0  0  0  0  0  0  0  0  0
    3.0216    8.8480    4.7312 C   0  0  0  0  0  0  0  0  0  0  0  0
    1.6626    7.0497    3.8621 N   0  0  0  0  0  0  0  0  0  0  0  0
    1.7287    5.8899    3.1788 C   0  0  0  0  0  0  0  0  0  0  0  0
    2.6878    5.6547    2.4746 O   0  0  0  0  0  0  0  0  0  0  0  0
    0.6109    4.8852    3.2898 C   0  0  0  0  0  0  0  0  0  0  0  0
    0.9908    3.4441    2.2627 S   0  0  0  0  0  0  0  0  0  0  0  0
   -0.4388    2.4619    2.5728 C   0  0  0  0  0  0  0  0  0  0  0  0
   -1.4496    2.7801    3.3503 N   0  0  0  0  0  0  0  0  0  0  0  0
   -2.3187    1.8335    3.3536 N   0  0  0  0  0  0  0  0  0  0  0  0
   -1.9192    0.8555    2.5745 C   0  0  0  0  0  0  0  0  0  0  0  0
   -0.7045    1.2295    2.0477 N   0  0  0  0  0  0  0  0  0  0  0  0
    0.1325    0.4627    1.1215 C   0  0  0  0  0  0  0  0  0  0  0  0
   -0.2322    0.8180   -0.2968 C   0  0  0  0  0  0  0  0  0  0  0  0
   -1.1021    1.6285   -0.5120 O   0  0  0  0  0  0  0  0  0  0  0  0
   -2.6383   -0.4094    2.3130 C   0  0  0  0  0  0  0  0  0  0  0  0
   -2.3131   -1.1826    1.1974 C   0  0  0  0  0  0  0  0  0  0  0  0
   -2.9847   -2.3641    0.9611 C   0  0  0  0  0  0  0  0  0  0  0  0
   -3.9863   -2.7787    1.8228 C   0  0  0  0  0  0  0  0  0  0  0  0
   -4.3169   -2.0132    2.9283 C   0  0  0  0  0  0  0  0  0  0  0  0
   -3.6492   -0.8323    3.1777 C   0  0  0  0  0  0  0  0  0  0  0  0
   -4.8311   -4.2637    1.5155 Cl  0  0  0  0  0  0  0  0  0  0  0  0
    4.8421    9.3461    0.9218 C   0  0  0  0  0  0  0  0  0  0  0  0
    4.5124    8.6383   -0.0086 O   0  0  0  0  0  0  0  0  0  0  0  0
    4.2855   10.4444    5.3782 H   0  0  0  0  0  0  0  0  0  0  0  0
    5.3415   10.7413    3.1782 H   0  0  0  0  0  0  0  0  0  0  0  0
    2.9369    7.5579    1.6042 H   0  0  0  0  0  0  0  0  0  0  0  0
    2.5579    8.7249    5.6988 H   0  0  0  0  0  0  0  0  0  0  0  0
    0.9354    7.2049    4.4851 H   0  0  0  0  0  0  0  0  0  0  0  0
   -0.3202    5.3385    2.9497 H   0  0  0  0  0  0  0  0  0  0  0  0
    0.5048    4.5731    4.3288 H   0  0  0  0  0  0  0  0  0  0  0  0
   -0.0299   -0.6031    1.2824 H   0  0  0  0  0  0  0  0  0  0  0  0
    1.1815    0.7010    1.2975 H   0  0  0  0  0  0  0  0  0  0  0  0
   -1.5347   -0.8584    0.5226 H   0  0  0  0  0  0  0  0  0  0  0  0
   -2.7316   -2.9649    0.1001 H   0  0  0  0  0  0  0  0  0  0  0  0
   -5.0995   -2.3413    3.5965 H   0  0  0  0  0  0  0  0  0  0  0  0
   -3.9081   -0.2360    4.0401 H   0  0  0  0  0  0  0  0  0  0  0  0
    0.4093    0.2340   -1.3211 O   0  0  0  0  0  1  0  0  0  0  0  0
    5.7849   10.2924    0.7472 O   0  0  0  0  0  1  0  0  0  0  0  0
  1  6  2  0  0  0  0
  1  2  1  0  0  0  0
  1 29  1  0  0  0  0
  2  3  2  0  0  0  0
  2 30  1  0  0  0  0
  3  4  1  0  0  0  0
  3 27  1  0  0  0  0
  4  5  2  0  0  0  0
  4 31  1  0  0  0  0
  5  6  1  0  0  0  0
  5  7  1  0  0  0  0
  6 32  1  0  0  0  0
  7  8  1  0  0  0  0
  7 33  1  0  0  0  0
  8  9  2  0  0  0  0
  8 10  1  0  0  0  0
 10 11  1  0  0  0  0
 10 34  1  0  0  0  0
 10 35  1  0  0  0  0
 11 12  1  0  0  0  0
 12 16  1  0  0  0  0
 12 13  2  0  0  0  0
 13 14  1  0  0  0  0
 14 15  2  0  0  0  0
 15 16  1  0  0  0  0
 15 20  1  0  0  0  0
 16 17  1  0  0  0  0
 17 18  1  0  0  0  0
 17 36  1  0  0  0  0
 17 37  1  0  0  0  0
 18 19  2  0  0  0  0
 18 42  1  0  0  0  0
 20 25  2  0  0  0  0
 20 21  1  0  0  0  0
 21 22  2  0  0  0  0
 21 38  1  0  0  0  0
 22 23  1  0  0  0  0
 22 39  1  0  0  0  0
 23 24  2  0  0  0  0
 23 26  1  0  0  0  0
 24 25  1  0  0  0  0
 24 40  1  0  0  0  0
 25 41  1  0  0  0  0
 27 28  2  0  0  0  0
 27 43  1  0  0  0  0
M  END
$$$$
ZINC65880124
 OpenBabel01252620473D

 43 45  0  0  1  0  0  0  0  0999 V2000
    0.1050    1.4766   -0.1427 C   0  0  0  0  0  0  0  0  0  0  0  0
   -0.0185   -0.0415    0.0019 C   0  0  2  0  0  0  0  0  0  0  0  0
    0.8321   -0.5071    1.1555 C   0  0  0  0  0  0  0  0  0  0  0  0
    1.8733   -1.0920    0.9439 O   0  0  0  0  0  0  0  0  0  0  0  0
    0.4359   -0.2734    2.4223 N   0  0  0  0  0  0  0  0  0  0  0  0
   -0.8596    0.3605    2.6795 C   0  0  0  0  0  0  0  0  0  0  0  0
    1.3006   -0.6534    3.5422 C   0  0  0  0  0  0  0  0  0  0  0  0
    2.2145    0.4953    3.8834 C   0  0  0  0  0  0  0  0  0  0  0  0
    3.1031    0.3734    4.8883 O   0  5  0  0  0  0  0  0  0  0  0  0
    2.1451    1.6058    3.2067 N   0  0  0  0  0  0  0  0  0  0  0  0
    2.9720    2.6451    3.5155 C   0  0  0  0  0  0  0  0  0  0  0  0
    3.8818    2.6566    4.4696 N   0  0  0  0  0  0  0  0  0  0  0  0
    2.4572    4.1392    2.1450 H   0  0  0  0  0  0  0  0  0  0  0  0
    4.5055    3.8411    4.4838 C   0  0  0  0  0  0  0  0  0  0  0  0
    4.0027    4.6039    3.5383 N   0  0  0  0  0  0  0  0  0  0  0  0
    3.0090    3.8530    2.8897 N   0  0  0  0  0  0  0  0  0  0  0  0
    5.5904    4.2309    5.4177 C   0  0  0  0  0  0  0  0  0  0  0  0
    6.1538    5.5022    5.3300 C   0  0  0  0  0  0  0  0  0  0  0  0
    7.1647    5.8517    6.2083 C   0  0  0  0  0  0  0  0  0  0  0  0
    7.5795    4.9171    7.1467 C   0  0  0  0  0  0  0  0  0  0  0  0
    6.9763    3.6735    7.1775 C   0  0  0  0  0  0  0  0  0  0  0  0
    6.0122    3.3682    6.3328 N   0  0  0  0  0  0  0  0  0  0  0  0
    0.4356   -0.6881   -1.2318 N   0  0  0  0  0  0  0  0  0  0  0  0
    1.4420   -0.2659   -2.0254 C   0  0  0  0  0  0  0  0  0  0  0  0
    1.5443   -1.1337   -3.0587 C   0  0  0  0  0  0  0  0  0  0  0  0
    0.5668   -2.1200   -2.8907 C   0  0  0  0  0  0  0  0  0  0  0  0
   -0.0944   -1.8573   -1.7927 N   0  0  0  0  0  0  0  0  0  0  0  0
    1.1551    1.7467   -0.2542 H   0  0  0  0  0  0  0  0  0  0  0  0
   -0.4498    1.8041   -1.0220 H   0  0  0  0  0  0  0  0  0  0  0  0
   -0.3024    1.9605    0.7450 H   0  0  0  0  0  0  0  0  0  0  0  0
   -1.0595   -0.3053    0.1885 H   0  0  0  0  0  0  0  0  0  0  0  0
   -1.6417   -0.3986    2.6806 H   0  0  0  0  0  0  0  0  0  0  0  0
   -0.8346    0.8579    3.6491 H   0  0  0  0  0  0  0  0  0  0  0  0
   -1.0663    1.0940    1.9001 H   0  0  0  0  0  0  0  0  0  0  0  0
    0.6863   -0.8987    4.4086 H   0  0  0  0  0  0  0  0  0  0  0  0
    1.8972   -1.5216    3.2622 H   0  0  0  0  0  0  0  0  0  0  0  0
    5.8068    6.2049    4.5869 H   0  0  0  0  0  0  0  0  0  0  0  0
    7.6208    6.8297    6.1642 H   0  0  0  0  0  0  0  0  0  0  0  0
    8.3663    5.1588    7.8459 H   0  0  0  0  0  0  0  0  0  0  0  0
    7.2970    2.9438    7.9062 H   0  0  0  0  0  0  0  0  0  0  0  0
    2.0556    0.6082   -1.8649 H   0  0  0  0  0  0  0  0  0  0  0  0
    2.2546   -1.0747   -3.8700 H   0  0  0  0  0  0  0  0  0  0  0  0
    0.3915   -2.9567   -3.5507 H   0  0  0  0  0  0  0  0  0  0  0  0
  1  2  1  0  0  0  0
  1 28  1  0  0  0  0
  1 29  1  0  0  0  0
  1 30  1  0  0  0  0
  2  3  1  0  0  0  0
  2 23  1  0  0  0  0
  2 31  1  1  0  0  0
  3  4  2  0  0  0  0
  3  5  1  0  0  0  0
  5  6  1  0  0  0  0
  5  7  1  0  0  0  0
  6 32  1  0  0  0  0
  6 33  1  0  0  0  0
  6 34  1  0  0  0  0
  7  8  1  0  0  0  0
  7 35  1  0  0  0  0
  7 36  1  0  0  0  0
  8  9  1  0  0  0  0
  8 10  2  0  0  0  0
 10 11  1  0  0  0  0
 11 12  2  0  0  0  0
 11 16  1  0  0  0  0
 12 14  1  0  0  0  0
 13 16  1  0  0  0  0
 14 17  1  0  0  0  0
 14 15  2  0  0  0  0
 15 16  1  0  0  0  0
 17 22  2  0  0  0  0
 17 18  1  0  0  0  0
 18 19  2  0  0  0  0
 18 37  1  0  0  0  0
 19 20  1  0  0  0  0
 19 38  1  0  0  0  0
 20 21  2  0  0  0  0
 20 39  1  0  0  0  0
 21 22  1  0  0  0  0
 21 40  1  0  0  0  0
 23 27  1  0  0  0  0
 23 24  1  0  0  0  0
 24 25  2  0  0  0  0
 24 41  1  0  0  0  0
 25 26  1  0  0  0  0
 25 42  1  0  0  0  0
 26 27  2  0  0  0  0
 26 43  1  0  0  0  0
M  CHG  1   9  -1
M  END
$$$$
ZINC15227735
 OpenBabel01252620473D

 34 35  0  0  1  0  0  0  0  0999 V2000
    0.3167    1.4763   -0.0005 C   0  0  0  0  0  0  0  0  0  0  0  0
   -0.0002    0.0030   -0.0015 C   0  0  0  0  0  0  0  0  0  0  0  0
   -0.0712   -0.6503    1.1268 N   0  0  0  0  0  0  0  0  0  0  0  0
   -0.2537   -2.0394    1.1216 N   0  0  0  0  0  0  0  0  0  0  0  0
   -0.3252   -2.6977    2.2585 C   0  0  0  0  0  0  0  0  0  0  0  0
   -0.2478   -2.1944    3.5406 N   0  0  0  0  0  0  0  0  0  0  0  0
   -0.3342   -2.9649    4.6114 C   0  0  0  0  0  0  0  0  0  0  0  0
   -0.2657   -2.5155    5.7357 O   0  0  0  0  0  0  0  0  0  0  0  0
   -0.5254   -4.4494    4.3452 C   0  0  1  0  0  0  0  0  0  0  0  0
   -1.4724   -4.8049    4.7513 H   0  0  0  0  0  0  0  0  0  0  0  0
   -0.5532   -4.4524    2.5048 S   0  0  0  0  0  0  0  0  0  0  0  0
    0.6483   -5.2660    4.8897 C   0  0  0  0  0  0  0  0  0  0  0  0
    0.3619   -6.7352    4.7151 C   0  0  0  0  0  0  0  0  0  0  0  0
   -0.6840   -7.0958    4.2026 O   0  0  0  0  0  0  0  0  0  0  0  0
    1.1761   -7.5634    5.0863 O   0  0  0  0  0  1  0  0  0  0  0  0
   -0.2295   -0.6987   -1.2730 C   0  0  0  0  0  0  0  0  0  0  0  0
   -1.4896   -1.2310   -1.5643 C   0  0  0  0  0  0  0  0  0  0  0  0
   -1.6996   -1.8876   -2.7568 C   0  0  0  0  0  0  0  0  0  0  0  0
   -0.6630   -2.0236   -3.6729 C   0  0  0  0  0  0  0  0  0  0  0  0
    0.5910   -1.4993   -3.3939 C   0  0  0  0  0  0  0  0  0  0  0  0
    0.8138   -0.8324   -2.2024 C   0  0  0  0  0  0  0  0  0  0  0  0
    2.0392   -0.3138   -1.9305 O   0  0  0  0  0  0  0  0  0  0  0  0
   -0.8786   -2.6731   -4.8465 O   0  0  0  0  0  0  0  0  0  0  0  0
    1.3959    1.6159   -0.0620 H   0  0  0  0  0  0  0  0  0  0  0  0
   -0.1606    1.9512   -0.8577 H   0  0  0  0  0  0  0  0  0  0  0  0
   -0.0562    1.9275    0.9191 H   0  0  0  0  0  0  0  0  0  0  0  0
   -0.1251   -1.2397    3.6609 H   0  0  0  0  0  0  0  0  0  0  0  0
    1.5559   -5.0055    4.3451 H   0  0  0  0  0  0  0  0  0  0  0  0
    0.7840   -5.0457    5.9485 H   0  0  0  0  0  0  0  0  0  0  0  0
   -2.2972   -1.1276   -0.8547 H   0  0  0  0  0  0  0  0  0  0  0  0
   -2.6729   -2.2986   -2.9807 H   0  0  0  0  0  0  0  0  0  0  0  0
    1.3926   -1.6079   -4.1094 H   0  0  0  0  0  0  0  0  0  0  0  0
    2.6587   -0.9492   -1.5462 H   0  0  0  0  0  0  0  0  0  0  0  0
   -1.1758   -2.0984   -5.5652 H   0  0  0  0  0  0  0  0  0  0  0  0
  1  2  1  0  0  0  0
  1 24  1  0  0  0  0
  1 25  1  0  0  0  0
  1 26  1  0  0  0  0
  2  3  2  0  0  0  0
  2 16  1  0  0  0  0
  3  4  1  0  0  0  0
  4  5  2  0  0  0  0
  5 11  1  0  0  0  0
  5  6  1  0  0  0  0
  6  7  1  0  0  0  0
  6 27  1  0  0  0  0
  7  8  2  0  0  0  0
  7  9  1  0  0  0  0
  9 10  1  1  0  0  0
  9 11  1  0  0  0  0
  9 12  1  0  0  0  0
 12 13  1  0  0  0  0
 12 28  1  0  0  0  0
 12 29  1  0  0  0  0
 13 14  2  0  0  0  0
 13 15  1  0  0  0  0
 16 21  2  0  0  0  0
 16 17  1  0  0  0  0
 17 18  2  0  0  0  0
 17 30  1  0  0  0  0
 18 19  1  0  0  0  0
 18 31  1  0  0  0  0
 19 20  2  0  0  0  0
 19 23  1  0  0  0  0
 20 21  1  0  0  0  0
 20 32  1  0  0  0  0
 21 22  1  0  0  0  0
 22 33  1  0  0  0  0
 23 34  1  0  0  0  0
M  END
$$$$
ZINC33253785
 OpenBabel01252620473D

 65 67  0  0  0  0  0  0  0  0999 V2000
   -0.1414    3.0063   -0.8941 C   0  0  0  0  0  0  0  0  0  0  0  0
   -0.2284    1.4880   -0.7266 C   0  0  0  0  0  0  0  0  0  0  0  0
    0.4835    0.8337   -1.8271 N   0  0  0  0  0  0  0  0  0  0  0  0
   -0.0489    0.4718   -3.0132 C   0  0  0  0  0  0  0  0  0  0  0  0
    0.9328   -0.0993   -3.7489 C   0  0  0  0  0  0  0  0  0  0  0  0
    2.1053   -0.0859   -2.9863 C   0  0  0  0  0  0  0  0  0  0  0  0
    1.8386    0.4786   -1.8365 N   0  0  0  0  0  0  0  0  0  0  0  0
    3.4459   -0.6226   -3.4174 C   0  0  0  0  0  0  0  0  0  0  0  0
    0.7882   -0.6527   -5.1431 C   0  0  0  0  0  0  0  0  0  0  0  0
    1.0796    0.4505   -6.1624 C   0  0  0  0  0  0  0  0  0  0  0  0
    0.9390   -0.0875   -7.5178 N   0  0  0  0  0  0  0  0  0  0  0  0
   -0.3582   -0.0333   -8.1965 C   0  0  0  0  0  0  0  0  0  0  0  0
    2.0362   -0.6492   -8.1598 C   0  0  0  0  0  0  0  0  0  0  0  0
    2.2998   -2.0073   -8.0302 C   0  0  0  0  0  0  0  0  0  0  0  0
    3.3884   -2.5655   -8.6663 C   0  0  0  0  0  0  0  0  0  0  0  0
    4.2318   -1.7758   -9.4431 C   0  0  0  0  0  0  0  0  0  0  0  0
    3.9844   -0.4227   -9.5835 C   0  0  0  0  0  0  0  0  0  0  0  0
    2.8792    0.1528   -8.9464 C   0  0  0  0  0  0  0  0  0  0  0  0
    2.6052    1.5898   -9.0952 C   0  0  0  0  0  0  0  0  0  0  0  0
    3.3419    2.2852   -9.7814 O   0  0  0  0  0  0  0  0  0  0  0  0
    1.6405    2.0901   -8.5329 O   0  0  0  0  0  1  0  0  0  0  0  0
    5.3344   -2.3536  -10.0839 N   0  0  0  0  0  0  0  0  0  0  0  0
    5.1620   -3.7847  -10.8992 S   0  0  0  0  0  0  0  0  0  0  0  0
    6.4210   -4.0671  -11.4946 O   0  0  0  0  0  0  0  0  0  0  0  0
    4.5221   -4.6862  -10.0065 O   0  0  0  0  0  0  0  0  0  0  0  0
    4.0327   -3.4983  -12.2211 C   0  0  0  0  0  0  0  0  0  0  0  0
    2.7991   -4.1224  -12.2238 C   0  0  0  0  0  0  0  0  0  0  0  0
    1.9132   -3.8979  -13.2607 C   0  0  0  0  0  0  0  0  0  0  0  0
    2.2606   -3.0487  -14.2950 C   0  0  0  0  0  0  0  0  0  0  0  0
    3.4936   -2.4241  -14.2919 C   0  0  0  0  0  0  0  0  0  0  0  0
    4.3780   -2.6454  -13.2525 C   0  0  0  0  0  0  0  0  0  0  0  0
    5.7202   -1.9603  -13.2464 C   0  0  0  0  0  0  0  0  0  0  0  0
    0.5689   -4.5789  -13.2641 C   0  0  0  0  0  0  0  0  0  0  0  0
   -1.4804    0.6680   -3.4414 C   0  0  0  0  0  0  0  0  0  0  0  0
    0.9044    3.3136   -0.8840 H   0  0  0  0  0  0  0  0  0  0  0  0
   -0.5954    3.2939   -1.8425 H   0  0  0  0  0  0  0  0  0  0  0  0
   -0.6711    3.4932   -0.0753 H   0  0  0  0  0  0  0  0  0  0  0  0
    0.2256    1.2005    0.2217 H   0  0  0  0  0  0  0  0  0  0  0  0
   -1.2741    1.1807   -0.7367 H   0  0  0  0  0  0  0  0  0  0  0  0
    4.0120    0.1674   -3.9108 H   0  0  0  0  0  0  0  0  0  0  0  0
    3.9956   -0.9718   -2.5433 H   0  0  0  0  0  0  0  0  0  0  0  0
    3.2998   -1.4517   -4.1097 H   0  0  0  0  0  0  0  0  0  0  0  0
    1.4927   -1.4724   -5.2835 H   0  0  0  0  0  0  0  0  0  0  0  0
   -0.2285   -1.0191   -5.2849 H   0  0  0  0  0  0  0  0  0  0  0  0
    0.3751    1.2703   -6.0220 H   0  0  0  0  0  0  0  0  0  0  0  0
    2.0963    0.8169   -6.0206 H   0  0  0  0  0  0  0  0  0  0  0  0
   -0.4374    0.8994   -8.7549 H   0  0  0  0  0  0  0  0  0  0  0  0
   -0.4448   -0.8759   -8.8825 H   0  0  0  0  0  0  0  0  0  0  0  0
   -1.1575   -0.0832   -7.4571 H   0  0  0  0  0  0  0  0  0  0  0  0
    1.6506   -2.6271   -7.4295 H   0  0  0  0  0  0  0  0  0  0  0  0
    3.5882   -3.6216   -8.5610 H   0  0  0  0  0  0  0  0  0  0  0  0
    4.6402    0.1878  -10.1866 H   0  0  0  0  0  0  0  0  0  0  0  0
    6.1993   -1.9157  -10.0503 H   0  0  0  0  0  0  0  0  0  0  0  0
    2.5277   -4.7857  -11.4158 H   0  0  0  0  0  0  0  0  0  0  0  0
    1.5687   -2.8738  -15.1056 H   0  0  0  0  0  0  0  0  0  0  0  0
    3.7651   -1.7611  -15.1000 H   0  0  0  0  0  0  0  0  0  0  0  0
    6.4704   -2.6270  -13.6716 H   0  0  0  0  0  0  0  0  0  0  0  0
    5.6654   -1.0485  -13.8412 H   0  0  0  0  0  0  0  0  0  0  0  0
    5.9956   -1.7098  -12.2219 H   0  0  0  0  0  0  0  0  0  0  0  0
   -0.1580   -3.9507  -12.7492 H   0  0  0  0  0  0  0  0  0  0  0  0
    0.2459   -4.7401  -14.2925 H   0  0  0  0  0  0  0  0  0  0  0  0
    0.6465   -5.5385  -12.7529 H   0  0  0  0  0  0  0  0  0  0  0  0
   -1.5829    1.6346   -3.9345 H   0  0  0  0  0  0  0  0  0  0  0  0
   -1.7645   -0.1248   -4.1334 H   0  0  0  0  0  0  0  0  0  0  0  0
   -2.1291    0.6360   -2.5660 H   0  0  0  0  0  0  0  0  0  0  0  0
  1  2  1  0  0  0  0
  1 35  1  0  0  0  0
  1 36  1  0  0  0  0
  1 37  1  0  0  0  0
  2  3  1  0  0  0  0
  2 38  1  0  0  0  0
  2 39  1  0  0  0  0
  3  7  1  0  0  0  0
  3  4  1  0  0  0  0
  4  5  2  0  0  0  0
  4 34  1  0  0  0  0
  5  6  1  0  0  0  0
  5  9  1  0  0  0  0
  6  7  2  0  0  0  0
  6  8  1  0  0  0  0
  8 40  1  0  0  0  0
  8 41  1  0  0  0  0
  8 42  1  0  0  0  0
  9 10  1  0  0  0  0
  9 43  1  0  0  0  0
  9 44  1  0  0  0  0
 10 11  1  0  0  0  0
 10 45  1  0  0  0  0
 10 46  1  0  0  0  0
 11 12  1  0  0  0  0
 11 13  1  0  0  0  0
 12 47  1  0  0  0  0
 12 48  1  0  0  0  0
 12 49  1  0  0  0  0
 13 18  2  0  0  0  0
 13 14  1  0  0  0  0
 14 15  2  0  0  0  0
 14 50  1  0  0  0  0
 15 16  1  0  0  0  0
 15 51  1  0  0  0  0
 16 17  2  0  0  0  0
 16 22  1  0  0  0  0
 17 18  1  0  0  0  0
 17 52  1  0  0  0  0
 18 19  1  0  0  0  0
 19 20  2  0  0  0  0
 19 21  1  0  0  0  0
 22 23  1  0  0  0  0
 22 53  1  0  0  0  0
 23 24  2  0  0  0  0
 23 25  2  0  0  0  0
 23 26  1  0  0  0  0
 26 31  2  0  0  0  0
 26 27  1  0  0  0  0
 27 28  2  0  0  0  0
 27 54  1  0  0  0  0
 28 29  1  0  0  0  0
 28 33  1  0  0  0  0
 29 30  2  0  0  0  0
 29 55  1  0  0  0  0
 30 31  1  0  0  0  0
 30 56  1  0  0  0  0
 31 32  1  0  0  0  0
 32 57  1  0  0  0  0
 32 58  1  0  0  0  0
 32 59  1  0  0  0  0
 33 60  1  0  0  0  0
 33 61  1  0  0  0  0
 33 62  1  0  0  0  0
 34 63  1  0  0  0  0
 34 64  1  0  0  0  0
 34 65  1  0  0  0  0
M  END
$$$$
ZINC51750735
 OpenBabel01252620473D

 34 35  0  0  1  0  0  0  0  0999 V2000
    0.0063    1.5418    0.0160 C   0  0  0  0  0  0  0  0  0  0  0  0
    0.0182    0.0120   -0.0028 C   0  0  1  0  0  0  0  0  0  0  0  0
   -1.0067   -0.3591   -0.0092 H   0  0  0  0  0  0  0  0  0  0  0  0
    0.7452   -0.4768   -1.2576 C   0  0  0  0  0  0  0  0  0  0  0  0
    0.7250   -2.0082   -1.2907 C   0  0  0  0  0  0  0  0  0  0  0  0
    1.2867   -2.5159   -0.0315 N   0  0  0  0  0  0  0  0  0  0  0  0
    0.7202   -2.0394    1.2376 C   0  0  1  0  0  0  0  0  0  0  0  0
    1.3174   -2.4153    2.0683 H   0  0  0  0  0  0  0  0  0  0  0  0
    0.7408   -0.5076    1.2422 C   0  0  0  0  0  0  0  0  0  0  0  0
   -0.7202   -2.5366    1.3751 C   0  0  0  0  0  0  0  0  0  0  0  0
    2.3020   -3.4022   -0.0405 C   0  0  0  0  0  0  0  0  0  0  0  0
    2.8234   -3.7375    1.0018 O   0  0  0  0  0  0  0  0  0  0  0  0
    2.7892   -3.9766   -1.3458 C   0  0  0  0  0  0  0  0  0  0  0  0
    2.8021   -5.5001   -1.4862 C   0  0  0  0  0  0  0  0  0  0  0  0
    1.7602   -4.6711   -2.2400 C   0  0  0  0  0  0  0  0  0  0  0  0
    3.8924   -3.2055   -2.0237 C   0  0  0  0  0  0  0  0  0  0  0  0
    4.7907   -2.7160   -1.3603 O   0  0  0  0  0  0  0  0  0  0  0  0
    3.8867   -3.0712   -3.2355 O   0  0  0  0  0  1  0  0  0  0  0  0
    1.0311    1.9131    0.0224 H   0  0  0  0  0  0  0  0  0  0  0  0
   -0.5088    1.9121   -0.8704 H   0  0  0  0  0  0  0  0  0  0  0  0
   -0.5120    1.8902    0.9095 H   0  0  0  0  0  0  0  0  0  0  0  0
    0.2439   -0.0871   -2.1436 H   0  0  0  0  0  0  0  0  0  0  0  0
    1.7774   -0.1269   -1.2396 H   0  0  0  0  0  0  0  0  0  0  0  0
   -0.3016   -2.3578   -1.4001 H   0  0  0  0  0  0  0  0  0  0  0  0
    1.3254   -2.3636   -2.1282 H   0  0  0  0  0  0  0  0  0  0  0  0
    1.7730   -0.1574    1.2365 H   0  0  0  0  0  0  0  0  0  0  0  0
    0.2363   -0.1399    2.1357 H   0  0  0  0  0  0  0  0  0  0  0  0
   -0.7314   -3.6265    1.3599 H   0  0  0  0  0  0  0  0  0  0  0  0
   -1.1386   -2.1821    2.3171 H   0  0  0  0  0  0  0  0  0  0  0  0
   -1.3169   -2.1556    0.5463 H   0  0  0  0  0  0  0  0  0  0  0  0
    3.6087   -5.9450   -2.0689 H   0  0  0  0  0  0  0  0  0  0  0  0
    2.4581   -6.0869   -0.6345 H   0  0  0  0  0  0  0  0  0  0  0  0
    0.7307   -4.7126   -1.8842 H   0  0  0  0  0  0  0  0  0  0  0  0
    1.8813   -4.5707   -3.3186 H   0  0  0  0  0  0  0  0  0  0  0  0
  1  2  1  0  0  0  0
  1 19  1  0  0  0  0
  1 20  1  0  0  0  0
  1 21  1  0  0  0  0
  2  3  1  6  0  0  0
  2  9  1  0  0  0  0
  2  4  1  0  0  0  0
  4  5  1  0  0  0  0
  4 22  1  0  0  0  0
  4 23  1  0  0  0  0
  5  6  1  0  0  0  0
  5 24  1  0  0  0  0
  5 25  1  0  0  0  0
  6  7  1  0  0  0  0
  6 11  1  0  0  0  0
  7  8  1  1  0  0  0
  7  9  1  0  0  0  0
  7 10  1  0  0  0  0
  9 26  1  0  0  0  0
  9 27  1  0  0  0  0
 10 28  1  0  0  0  0
 10 29  1  0  0  0  0
 10 30  1  0  0  0  0
 11 12  2  0  0  0  0
 11 13  1  0  0  0  0
 13 15  1  0  0  0  0
 13 14  1  0  0  0  0
 13 16  1  0  0  0  0
 14 15  1  0  0  0  0
 14 31  1  0  0  0  0
 14 32  1  0  0  0  0
 15 33  1  0  0  0  0
 15 34  1  0  0  0  0
 16 17  2  0  0  0  0
 16 18  1  0  0  0  0
M  END
$$$$
ZINC43510287
 OpenBabel01252620473D

 32 34  0  0  1  0  0  0  0  0999 V2000
   -0.0162    1.3442    0.0094 C   0  0  0  0  0  0  0  0  0  0  0  0
    1.3236    1.7757   -0.0010 C   0  0  0  0  0  0  0  0  0  0  0  0
    2.0967    0.6540   -0.0144 C   0  0  0  0  0  0  0  0  0  0  0  0
    1.2792   -0.4176   -0.0124 O   0  0  0  0  0  0  0  0  0  0  0  0
    0.0021   -0.0041    0.0020 C   0  0  0  0  0  0  0  0  0  0  0  0
    3.5676    0.6185   -0.0294 C   0  0  0  0  0  0  0  0  0  0  0  0
    4.3772   -0.4281   -0.0483 N   0  0  0  0  0  0  0  0  0  0  0  0
    5.6858   -0.2126   -0.0598 C   0  0  0  0  0  0  0  0  0  0  0  0
    6.1489    1.0762   -0.0518 C   0  0  0  0  0  0  0  0  0  0  0  0
    4.7262    1.9752   -0.0349 S   0  0  0  0  0  0  0  0  0  0  0  0
    6.6284   -1.3443   -0.0803 C   0  0  0  0  0  0  0  0  0  0  0  0
    7.8270   -1.1373   -0.0903 O   0  0  0  0  0  0  0  0  0  0  0  0
    6.1629   -2.6090   -0.0881 N   0  0  0  0  0  0  0  0  0  0  0  0
    7.1004   -3.7346   -0.1086 C   0  0  1  0  0  0  0  0  0  0  0  0
    6.3079   -5.0344    0.0232 C   0  0  0  0  0  0  0  0  0  0  0  0
    5.9135   -5.5699   -1.3816 C   0  0  0  0  0  0  0  0  0  0  0  0
    7.4668   -5.1868   -2.3041 S   0  0  0  0  0  0  0  0  0  0  0  0
    7.9396   -3.6549   -1.3988 C   0  0  0  0  0  0  0  0  0  0  0  0
    8.0237   -3.6136    1.0763 C   0  0  0  0  0  0  0  0  0  0  0  0
    7.8940   -2.6871    1.8581 O   0  0  0  0  0  0  0  0  0  0  0  0
    8.9004   -4.4423    1.2531 O   0  0  0  0  0  1  0  0  0  0  0  0
   -0.8933    1.9741    0.0252 H   0  0  0  0  0  0  0  0  0  0  0  0
    1.6714    2.7981    0.0008 H   0  0  0  0  0  0  0  0  0  0  0  0
   -0.8670   -0.6453    0.0069 H   0  0  0  0  0  0  0  0  0  0  0  0
    7.1702    1.4273   -0.0584 H   0  0  0  0  0  0  0  0  0  0  0  0
    5.2070   -2.7741   -0.0801 H   0  0  0  0  0  0  0  0  0  0  0  0
    6.9184   -5.7787    0.5346 H   0  0  0  0  0  0  0  0  0  0  0  0
    5.4050   -4.8488    0.6050 H   0  0  0  0  0  0  0  0  0  0  0  0
    5.7196   -6.6422   -1.3580 H   0  0  0  0  0  0  0  0  0  0  0  0
    5.0635   -5.0239   -1.7907 H   0  0  0  0  0  0  0  0  0  0  0  0
    7.6742   -2.7694   -1.9762 H   0  0  0  0  0  0  0  0  0  0  0  0
    9.0044   -3.6587   -1.1659 H   0  0  0  0  0  0  0  0  0  0  0  0
  1  5  2  0  0  0  0
  1  2  1  0  0  0  0
  1 22  1  0  0  0  0
  2  3  2  0  0  0  0
  2 23  1  0  0  0  0
  3  4  1  0  0  0  0
  3  6  1  0  0  0  0
  4  5  1  0  0  0  0
  5 24  1  0  0  0  0
  6 10  1  0  0  0  0
  6  7  2  0  0  0  0
  7  8  1  0  0  0  0
  8  9  2  0  0  0  0
  8 11  1  0  0  0  0
  9 10  1  0  0  0  0
  9 25  1  0  0  0  0
 11 12  2  0  0  0  0
 11 13  1  0  0  0  0
 13 14  1  0  0  0  0
 13 26  1  0  0  0  0
 14 18  1  0  0  0  0
 14 15  1  0  0  0  0
 14 19  1  1  0  0  0
 15 16  1  0  0  0  0
 15 27  1  0  0  0  0
 15 28  1  0  0  0  0
 16 17  1  0  0  0  0
 16 29  1  0  0  0  0
 16 30  1  0  0  0  0
 17 18  1  0  0  0  0
 18 31  1  0  0  0  0
 18 32  1  0  0  0  0
 19 20  2  0  0  0  0
 19 21  1  0  0  0  0
M  END
$$$$
ZINC63711342
 OpenBabel01252620473D

 42 43  0  0  0  0  0  0  0  0999 V2000
    0.7476    1.0365   -3.9326 C   0  0  0  0  0  0  0  0  0  0  0  0
    0.6895   -0.4454   -3.5563 C   0  0  0  0  0  0  0  0  0  0  0  0
    0.9309   -0.6249   -1.7674 S   0  0  0  0  0  0  0  0  0  0  0  0
    0.8383   -2.3636   -1.4972 C   0  0  0  0  0  0  0  0  0  0  0  0
    0.9783   -2.8680   -0.2076 C   0  0  0  0  0  0  0  0  0  0  0  0
    0.9040   -4.2335   -0.0066 C   0  0  0  0  0  0  0  0  0  0  0  0
    0.6904   -5.0571   -1.1116 C   0  0  0  0  0  0  0  0  0  0  0  0
    0.5603   -4.4839   -2.3672 C   0  0  0  0  0  0  0  0  0  0  0  0
    0.6311   -3.1754   -2.5225 N   0  0  0  0  0  0  0  0  0  0  0  0
    0.6087   -6.4471   -0.9547 N   0  0  0  0  0  0  0  0  0  0  0  0
    0.0874   -6.9684    0.1735 C   0  0  0  0  0  0  0  0  0  0  0  0
   -0.3996   -6.2359    1.0134 O   0  0  0  0  0  0  0  0  0  0  0  0
    0.1073   -8.4265    0.3895 C   0  0  0  0  0  0  0  0  0  0  0  0
    0.6709   -9.2717   -0.5701 C   0  0  0  0  0  0  0  0  0  0  0  0
    0.6864  -10.6333   -0.3623 C   0  0  0  0  0  0  0  0  0  0  0  0
    0.1454  -11.1715    0.7949 C   0  0  0  0  0  0  0  0  0  0  0  0
   -0.4150  -10.3505    1.7515 C   0  0  0  0  0  0  0  0  0  0  0  0
   -0.4344   -8.9740    1.5628 C   0  0  0  0  0  0  0  0  0  0  0  0
   -0.9925   -8.1449    2.5272 N   0  0  0  0  0  2  0  0  0  0  0  0
   -1.6305   -8.7957    3.9099 S   0  0  0  0  0  0  0  0  0  0  0  0
   -2.7241   -9.5875    3.4669 O   0  0  0  0  0  0  0  0  0  0  0  0
   -0.5249   -9.3936    4.5729 O   0  0  0  0  0  0  0  0  0  0  0  0
   -2.2335   -7.3727    4.8596 C   0  0  0  0  0  0  0  0  0  0  0  0
   -2.8506   -7.8601    6.1721 C   0  0  0  0  0  0  0  0  0  0  0  0
   -0.0378    1.5766   -3.4040 H   0  0  0  0  0  0  0  0  0  0  0  0
    1.7195    1.4442   -3.6544 H   0  0  0  0  0  0  0  0  0  0  0  0
    0.6026    1.1444   -5.0075 H   0  0  0  0  0  0  0  0  0  0  0  0
   -0.2823   -0.8531   -3.8345 H   0  0  0  0  0  0  0  0  0  0  0  0
    1.4750   -0.9855   -4.0849 H   0  0  0  0  0  0  0  0  0  0  0  0
    1.1432   -2.2009    0.6255 H   0  0  0  0  0  0  0  0  0  0  0  0
    1.0094   -4.6529    0.9830 H   0  0  0  0  0  0  0  0  0  0  0  0
    0.3947   -5.1153   -3.2276 H   0  0  0  0  0  0  0  0  0  0  0  0
    0.9275   -7.0341   -1.6580 H   0  0  0  0  0  0  0  0  0  0  0  0
    1.0935   -8.8579   -1.4737 H   0  0  0  0  0  0  0  0  0  0  0  0
    1.1220  -11.2851   -1.1051 H   0  0  0  0  0  0  0  0  0  0  0  0
    0.1624  -12.2404    0.9484 H   0  0  0  0  0  0  0  0  0  0  0  0
   -0.8348  -10.7778    2.6503 H   0  0  0  0  0  0  0  0  0  0  0  0
   -1.4023   -6.7017    5.0761 H   0  0  0  0  0  0  0  0  0  0  0  0
   -2.9876   -6.8415    4.2789 H   0  0  0  0  0  0  0  0  0  0  0  0
   -2.0966   -8.3913    6.7529 H   0  0  0  0  0  0  0  0  0  0  0  0
   -3.2130   -7.0050    6.7428 H   0  0  0  0  0  0  0  0  0  0  0  0
   -3.6819   -8.5311    5.9557 H   0  0  0  0  0  0  0  0  0  0  0  0
  1  2  1  0  0  0  0
  1 25  1  0  0  0  0
  1 26  1  0  0  0  0
  1 27  1  0  0  0  0
  2  3  1  0  0  0  0
  2 28  1  0  0  0  0
  2 29  1  0  0  0  0
  3  4  1  0  0  0  0
  4  9  2  0  0  0  0
  4  5  1  0  0  0  0
  5  6  2  0  0  0  0
  5 30  1  0  0  0  0
  6  7  1  0  0  0  0
  6 31  1  0  0  0  0
  7  8  2  0  0  0  0
  7 10  1  0  0  0  0
  8  9  1  0  0  0  0
  8 32  1  0  0  0  0
 10 11  1  0  0  0  0
 10 33  1  0  0  0  0
 11 12  2  0  0  0  0
 11 13  1  0  0  0  0
 13 18  2  0  0  0  0
 13 14  1  0  0  0  0
 14 15  2  0  0  0  0
 14 34  1  0  0  0  0
 15 16  1  0  0  0  0
 15 35  1  0  0  0  0
 16 17  2  0  0  0  0
 16 36  1  0  0  0  0
 17 18  1  0  0  0  0
 17 37  1  0  0  0  0
 18 19  1  0  0  0  0
 19 20  1  0  0  0  0
 20 21  2  0  0  0  0
 20 22  2  0  0  0  0
 20 23  1  0  0  0  0
 23 24  1  0  0  0  0
 23 38  1  0  0  0  0
 23 39  1  0  0  0  0
 24 40  1  0  0  0  0
 24 41  1  0  0  0  0
 24 42  1  0  0  0  0
M  END
$$$$
ZINC13351823
 OpenBabel01252620473D

 43 44  0  0  0  0  0  0  0  0999 V2000
   -0.8049    1.6793    1.1660 C   0  0  0  0  0  0  0  0  0  0  0  0
   -0.0465    1.1879   -0.0686 C   0  0  0  0  0  0  0  0  0  0  0  0
   -0.4691    1.9303   -1.2141 O   0  0  0  0  0  0  0  0  0  0  0  0
    0.1121    1.6156   -2.4026 C   0  0  0  0  0  0  0  0  0  0  0  0
    1.0647    0.6173   -2.4622 C   0  0  0  0  0  0  0  0  0  0  0  0
    1.6613    0.2957   -3.6874 C   0  0  0  0  0  0  0  0  0  0  0  0
    1.2886    0.9883   -4.8459 C   0  0  0  0  0  0  0  0  0  0  0  0
    0.3370    1.9832   -4.7768 C   0  0  0  0  0  0  0  0  0  0  0  0
   -0.2580    2.2970   -3.5609 C   0  0  0  0  0  0  0  0  0  0  0  0
   -1.1998    3.2745   -3.5000 O   0  0  0  0  0  0  0  0  0  0  0  0
   -0.1240    2.8417   -6.2135 Cl  0  0  0  0  0  0  0  0  0  0  0  0
    2.6743   -0.7650   -3.7573 C   0  0  0  0  0  0  0  0  0  0  0  0
    3.1216   -1.1980   -4.9637 C   0  0  0  0  0  0  0  0  0  0  0  0
    4.2374   -2.1114   -5.2814 C   0  0  0  0  0  0  0  0  0  0  0  0
    4.9254   -2.6080   -4.4088 O   0  0  0  0  0  0  0  0  0  0  0  0
    4.4515   -2.3623   -6.5620 N   0  0  0  0  0  0  0  0  0  0  0  0
    3.6871   -1.8095   -7.5257 C   0  0  0  0  0  0  0  0  0  0  0  0
    3.8059   -2.0087   -9.2219 S   0  0  0  0  0  0  0  0  0  0  0  0
    2.5167   -0.8251   -6.6040 S   0  0  0  0  0  0  0  0  0  0  0  0
    5.5438   -3.2614   -6.9424 C   0  0  0  0  0  0  0  0  0  0  0  0
    5.0228   -4.6986   -7.0053 C   0  0  0  0  0  0  0  0  0  0  0  0
    6.1636   -5.6376   -7.4026 C   0  0  0  0  0  0  0  0  0  0  0  0
    5.6426   -7.0748   -7.4656 C   0  0  0  0  0  0  0  0  0  0  0  0
    6.7662   -7.9998   -7.8569 C   0  0  0  0  0  0  0  0  0  0  0  0
    7.8704   -7.5551   -8.0642 O   0  0  0  0  0  0  0  0  0  0  0  0
   -0.5975    2.7379    1.3223 H   0  0  0  0  0  0  0  0  0  0  0  0
   -1.8751    1.5372    1.0154 H   0  0  0  0  0  0  0  0  0  0  0  0
   -0.4826    1.1130    2.0397 H   0  0  0  0  0  0  0  0  0  0  0  0
   -0.2539    0.1293   -0.2249 H   0  0  0  0  0  0  0  0  0  0  0  0
    1.0237    1.3300    0.0820 H   0  0  0  0  0  0  0  0  0  0  0  0
    1.3485    0.0857   -1.5659 H   0  0  0  0  0  0  0  0  0  0  0  0
    1.7467    0.7435   -5.7928 H   0  0  0  0  0  0  0  0  0  0  0  0
   -0.8409    4.1565   -3.3318 H   0  0  0  0  0  0  0  0  0  0  0  0
    3.0636   -1.2007   -2.8490 H   0  0  0  0  0  0  0  0  0  0  0  0
    5.9293   -2.9715   -7.9199 H   0  0  0  0  0  0  0  0  0  0  0  0
    6.3421   -3.1964   -6.2031 H   0  0  0  0  0  0  0  0  0  0  0  0
    4.6373   -4.9885   -6.0279 H   0  0  0  0  0  0  0  0  0  0  0  0
    4.2245   -4.7636   -7.7446 H   0  0  0  0  0  0  0  0  0  0  0  0
    6.5491   -5.3478   -8.3801 H   0  0  0  0  0  0  0  0  0  0  0  0
    6.9619   -5.5726   -6.6633 H   0  0  0  0  0  0  0  0  0  0  0  0
    5.2571   -7.3647   -6.4881 H   0  0  0  0  0  0  0  0  0  0  0  0
    4.8443   -7.1399   -8.2049 H   0  0  0  0  0  0  0  0  0  0  0  0
    6.5403   -9.3176   -7.9752 O   0  0  0  0  0  1  0  0  0  0  0  0
  1  2  1  0  0  0  0
  1 26  1  0  0  0  0
  1 27  1  0  0  0  0
  1 28  1  0  0  0  0
  2  3  1  0  0  0  0
  2 29  1  0  0  0  0
  2 30  1  0  0  0  0
  3  4  1  0  0  0  0
  4  9  2  0  0  0  0
  4  5  1  0  0  0  0
  5  6  2  0  0  0  0
  5 31  1  0  0  0  0
  6  7  1  0  0  0  0
  6 12  1  0  0  0  0
  7  8  2  0  0  0  0
  7 32  1  0  0  0  0
  8  9  1  0  0  0  0
  8 11  1  0  0  0  0
  9 10  1  0  0  0  0
 10 33  1  0  0  0  0
 12 13  2  0  0  0  0
 12 34  1  0  0  0  0
 13 19  1  0  0  0  0
 13 14  1  0  0  0  0
 14 15  2  0  0  0  0
 14 16  1  0  0  0  0
 16 17  1  0  0  0  0
 16 20  1  0  0  0  0
 17 18  2  0  0  0  0
 17 19  1  0  0  0  0
 20 21  1  0  0  0  0
 20 35  1  0  0  0  0
 20 36  1  0  0  0  0
 21 22  1  0  0  0  0
 21 37  1  0  0  0  0
 21 38  1  0  0  0  0
 22 23  1  0  0  0  0
 22 39  1  0  0  0  0
 22 40  1  0  0  0  0
 23 24  1  0  0  0  0
 23 41  1  0  0  0  0
 23 42  1  0  0  0  0
 24 25  2  0  0  0  0
 24 43  1  0  0  0  0
M  END
$$$$
ZINC55243053
 OpenBabel01252620473D

 38 39  0  0  0  0  0  0  0  0999 V2000
   -0.0167    1.3780    0.0096 C   0  0  0  0  0  0  0  0  0  0  0  0
    1.1692    2.0901    0.0021 C   0  0  0  0  0  0  0  0  0  0  0  0
    2.3812    1.4179   -0.0135 C   0  0  0  0  0  0  0  0  0  0  0  0
    2.4004    0.0224   -0.0211 C   0  0  0  0  0  0  0  0  0  0  0  0
    1.2066   -0.6833   -0.0130 C   0  0  0  0  0  0  0  0  0  0  0  0
    0.0021   -0.0041    0.0020 C   0  0  0  0  0  0  0  0  0  0  0  0
   -1.5133   -0.9031    0.0116 S   0  0  0  0  0  0  0  0  0  0  0  0
   -1.2219   -2.1843    0.5528 O   0  0  0  0  0  0  0  0  0  0  0  0
   -2.4927   -0.0423    0.5764 O   0  0  0  0  0  0  0  0  0  0  0  0
   -1.9494   -1.1445   -1.5676 N   0  0  0  0  0  0  0  0  0  0  0  0
   -2.7865   -0.1633   -2.2713 C   0  0  0  0  0  0  0  0  0  0  0  0
   -2.0818    0.2460   -3.5685 C   0  0  0  0  0  0  0  0  0  0  0  0
   -1.7593   -1.0067   -4.3863 C   0  0  0  0  0  0  0  0  0  0  0  0
   -0.8162   -1.9101   -3.5885 C   0  0  0  0  0  0  0  0  0  0  0  0
   -1.5015   -2.3408   -2.2935 C   0  0  0  0  0  0  0  0  0  0  0  0
    3.9367   -0.8401   -0.0415 S   0  0  0  0  0  0  0  0  0  0  0  0
    3.5827    2.1367   -0.0220 N   0  0  0  0  0  0  0  0  0  0  0  0
    3.5600    3.6015   -0.0145 C   0  0  0  0  0  0  0  0  0  0  0  0
    4.9728    4.1258   -0.0261 C   0  0  0  0  0  0  0  0  0  0  0  0
    5.9116    3.3480   -0.0395 O   0  0  0  0  0  0  0  0  0  0  0  0
    5.1770    5.3278   -0.0222 O   0  0  0  0  0  1  0  0  0  0  0  0
   -0.9601    1.9035    0.0260 H   0  0  0  0  0  0  0  0  0  0  0  0
    1.1507    3.1700    0.0081 H   0  0  0  0  0  0  0  0  0  0  0  0
    1.2175   -1.7632   -0.0193 H   0  0  0  0  0  0  0  0  0  0  0  0
   -3.7532   -0.6090   -2.5057 H   0  0  0  0  0  0  0  0  0  0  0  0
   -2.9297    0.7141   -1.6407 H   0  0  0  0  0  0  0  0  0  0  0  0
   -2.7348    0.8998   -4.1466 H   0  0  0  0  0  0  0  0  0  0  0  0
   -1.1577    0.7726   -3.3299 H   0  0  0  0  0  0  0  0  0  0  0  0
   -2.6814   -1.5459   -4.6035 H   0  0  0  0  0  0  0  0  0  0  0  0
   -1.2798   -0.7165   -5.3212 H   0  0  0  0  0  0  0  0  0  0  0  0
   -0.5683   -2.7908   -4.1809 H   0  0  0  0  0  0  0  0  0  0  0  0
    0.0960   -1.3632   -3.3497 H   0  0  0  0  0  0  0  0  0  0  0  0
   -0.7971   -2.8997   -1.6774 H   0  0  0  0  0  0  0  0  0  0  0  0
   -2.3611   -2.9681   -2.5296 H   0  0  0  0  0  0  0  0  0  0  0  0
    4.2339   -1.0063    1.2597 H   0  0  0  0  0  0  0  0  0  0  0  0
    4.4301    1.6648   -0.0329 H   0  0  0  0  0  0  0  0  0  0  0  0
    3.0316    3.9612   -0.8974 H   0  0  0  0  0  0  0  0  0  0  0  0
    3.0496    3.9523    0.8825 H   0  0  0  0  0  0  0  0  0  0  0  0
  1  6  2  0  0  0  0
  1  2  1  0  0  0  0
  1 22  1  0  0  0  0
  2  3  2  0  0  0  0
  2 23  1  0  0  0  0
  3  4  1  0  0  0  0
  3 17  1  0  0  0  0
  4  5  2  0  0  0  0
  4 16  1  0  0  0  0
  5  6  1  0  0  0  0
  5 24  1  0  0  0  0
  6  7  1  0  0  0  0
  7  8  2  0  0  0  0
  7  9  2  0  0  0  0
  7 10  1  0  0  0  0
 10 15  1  0  0  0  0
 10 11  1  0  0  0  0
 11 12  1  0  0  0  0
 11 25  1  0  0  0  0
 11 26  1  0  0  0  0
 12 13  1  0  0  0  0
 12 27  1  0  0  0  0
 12 28  1  0  0  0  0
 13 14  1  0  0  0  0
 13 29  1  0  0  0  0
 13 30  1  0  0  0  0
 14 15  1  0  0  0  0
 14 31  1  0  0  0  0
 14 32  1  0  0  0  0
 15 33  1  0  0  0  0
 15 34  1  0  0  0  0
 16 35  1  0  0  0  0
 17 18  1  0  0  0  0
 17 36  1  0  0  0  0
 18 19  1  0  0  0  0
 18 37  1  0  0  0  0
 18 38  1  0  0  0  0
 19 20  2  0  0  0  0
 19 21  1  0  0  0  0
M  END
$$$$
ZINC33537924
 OpenBabel01252620473D

 53 56  0  0  1  0  0  0  0  0999 V2000
    0.2358   -2.1934   -2.2846 C   0  0  0  0  0  0  0  0  0  0  0  0
    0.8167   -1.6420   -1.1575 C   0  0  0  0  0  0  0  0  0  0  0  0
    2.0463   -1.0173   -1.2484 C   0  0  0  0  0  0  0  0  0  0  0  0
    2.6940   -0.9394   -2.4672 C   0  0  0  0  0  0  0  0  0  0  0  0
    2.1158   -1.4955   -3.5941 C   0  0  0  0  0  0  0  0  0  0  0  0
    0.8845   -2.1203   -3.5026 C   0  0  0  0  0  0  0  0  0  0  0  0
    2.9312   -1.4034   -5.1239 Cl  0  0  0  0  0  0  0  0  0  0  0  0
    2.6783   -0.4157   -0.0197 C   0  0  2  0  0  0  0  0  0  0  0  0
    2.2349   -0.8945    0.8658 H   0  0  0  0  0  0  0  0  0  0  0  0
    2.4838    1.0827   -0.0158 C   0  0  0  0  0  0  0  0  0  0  0  0
    3.7178    1.6363   -0.0242 C   0  0  0  0  0  0  0  0  0  0  0  0
    4.7314    0.5643   -0.0398 C   0  0  0  0  0  0  0  0  0  0  0  0
    5.9337    0.7418   -0.0504 O   0  0  0  0  0  0  0  0  0  0  0  0
    4.1289   -0.6386   -0.0411 N   0  0  0  0  0  0  0  0  0  0  0  0
    4.8013   -1.9401   -0.0549 C   0  0  0  0  0  0  0  0  0  0  0  0
    5.0495   -2.4012    1.3827 C   0  0  0  0  0  0  0  0  0  0  0  0
    5.7238   -3.7062    1.3689 N   0  0  0  0  0  0  0  0  0  0  0  0
    4.8432   -4.7484    0.8214 C   0  0  0  0  0  0  0  0  0  0  0  0
    5.6038   -6.0762    0.7699 C   0  0  0  0  0  0  0  0  0  0  0  0
    6.0765   -6.4002    2.0801 O   0  0  0  0  0  0  0  0  0  0  0  0
    6.9375   -5.4068    2.6435 C   0  0  0  0  0  0  0  0  0  0  0  0
    6.1905   -4.0723    2.7141 C   0  0  0  0  0  0  0  0  0  0  0  0
    3.9814    2.9648   -0.0186 O   0  5  0  0  0  0  0  0  0  0  0  0
    1.2023    1.7995    0.0002 C   0  0  0  0  0  0  0  0  0  0  0  0
    1.1858    3.0190    0.0069 O   0  0  0  0  0  0  0  0  0  0  0  0
   -0.0126    1.0758    0.0080 C   0  0  0  0  0  0  0  0  0  0  0  0
   -1.1992    1.7396    0.0172 C   0  0  0  0  0  0  0  0  0  0  0  0
   -2.4134    1.0164    0.0190 C   0  0  0  0  0  0  0  0  0  0  0  0
   -3.6847    1.5587    0.0280 C   0  0  0  0  0  0  0  0  0  0  0  0
   -4.5786    0.4789    0.0259 C   0  0  0  0  0  0  0  0  0  0  0  0
   -3.8388   -0.6536    0.0159 C   0  0  0  0  0  0  0  0  0  0  0  0
   -2.5391   -0.3273    0.0064 O   0  0  0  0  0  0  0  0  0  0  0  0
   -0.7251   -2.6810   -2.2131 H   0  0  0  0  0  0  0  0  0  0  0  0
    0.3092   -1.6990   -0.2059 H   0  0  0  0  0  0  0  0  0  0  0  0
    3.6529   -0.4477   -2.5388 H   0  0  0  0  0  0  0  0  0  0  0  0
    0.4304   -2.5505   -4.3830 H   0  0  0  0  0  0  0  0  0  0  0  0
    4.1666   -2.6752   -0.5713 H   0  0  0  0  0  0  0  0  0  0  0  0
    5.7624   -1.8507   -0.5824 H   0  0  0  0  0  0  0  0  0  0  0  0
    5.6841   -1.6660    1.8991 H   0  0  0  0  0  0  0  0  0  0  0  0
    4.0884   -2.4907    1.9102 H   0  0  0  0  0  0  0  0  0  0  0  0
    3.9577   -4.8555    1.4651 H   0  0  0  0  0  0  0  0  0  0  0  0
    4.5268   -4.4652   -0.1933 H   0  0  0  0  0  0  0  0  0  0  0  0
    4.9312   -6.8705    0.4139 H   0  0  0  0  0  0  0  0  0  0  0  0
    6.4576   -5.9833    0.0826 H   0  0  0  0  0  0  0  0  0  0  0  0
    7.2391   -5.7144    3.6556 H   0  0  0  0  0  0  0  0  0  0  0  0
    7.8316   -5.2958    2.0123 H   0  0  0  0  0  0  0  0  0  0  0  0
    6.8661   -3.2913    3.0930 H   0  0  0  0  0  0  0  0  0  0  0  0
    5.3267   -4.1686    3.3883 H   0  0  0  0  0  0  0  0  0  0  0  0
    0.0023   -0.0241    0.0066 H   0  0  0  0  0  0  0  0  0  0  0  0
   -1.2141    2.8395    0.0232 H   0  0  0  0  0  0  0  0  0  0  0  0
   -3.9394    2.6082    0.0352 H   0  0  0  0  0  0  0  0  0  0  0  0
   -5.6569    0.5398    0.0317 H   0  0  0  0  0  0  0  0  0  0  0  0
   -4.2325   -1.6593    0.0116 H   0  0  0  0  0  0  0  0  0  0  0  0
  1  6  2  0  0  0  0
  1  2  1  0  0  0  0
  1 33  1  0  0  0  0
  2  3  2  0  0  0  0
  2 34  1  0  0  0  0
  3  4  1  0  0  0  0
  3  8  1  0  0  0  0
  4  5  2  0  0  0  0
  4 35  1  0  0  0  0
  5  6  1  0  0  0  0
  5  7  1  0  0  0  0
  6 36  1  0  0  0  0
  8  9  1  1  0  0  0
  8 14  1  0  0  0  0
  8 10  1  0  0  0  0
 10 11  2  0  0  0  0
 10 24  1  0  0  0  0
 11 12  1  0  0  0  0
 11 23  1  0  0  0  0
 12 13  2  0  0  0  0
 12 14  1  0  0  0  0
 14 15  1  0  0  0  0
 15 16  1  0  0  0  0
 15 37  1  0  0  0  0
 15 38  1  0  0  0  0
 16 17  1  0  0  0  0
 16 39  1  0  0  0  0
 16 40  1  0  0  0  0
 17 22  1  0  0  0  0
 17 18  1  0  0  0  0
 18 19  1  0  0  0  0
 18 41  1  0  0  0  0
 18 42  1  0  0  0  0
 19 20  1  0  0  0  0
 19 43  1  0  0  0  0
 19 44  1  0  0  0  0
 20 21  1  0  0  0  0
 21 22  1  0  0  0  0
 21 45  1  0  0  0  0
 21 46  1  0  0  0  0
 22 47  1  0  0  0  0
 22 48  1  0  0  0  0
 24 25  2  0  0  0  0
 24 26  1  0  0  0  0
 26 27  2  0  0  0  0
 26 49  1  0  0  0  0
 27 28  1  0  0  0  0
 27 50  1  0  0  0  0
 28 32  1  0  0  0  0
 28 29  2  0  0  0  0
 29 30  1  0  0  0  0
 29 51  1  0  0  0  0
 30 31  2  0  0  0  0
 30 52  1  0  0  0  0
 31 32  1  0  0  0  0
 31 53  1  0  0  0  0
M  CHG  1  23  -1
M  END
$$$$
ZINC34496147
 OpenBabel01252620473D

 29 30  0  0  0  0  0  0  0  0999 V2000
   -0.0173    1.4248    0.0099 C   0  0  0  0  0  0  0  0  0  0  0  0
    0.0021   -0.0041    0.0020 O   0  0  0  0  0  0  0  0  0  0  0  0
   -1.2006   -0.6376    0.0101 C   0  0  0  0  0  0  0  0  0  0  0  0
   -2.3495    0.0981    0.0194 C   0  0  0  0  0  0  0  0  0  0  0  0
   -3.5940   -0.5545    0.0278 C   0  0  0  0  0  0  0  0  0  0  0  0
   -4.7968    0.1724    0.0364 C   0  0  0  0  0  0  0  0  0  0  0  0
   -5.9852   -0.4912    0.0434 C   0  0  0  0  0  0  0  0  0  0  0  0
   -6.0291   -1.8841    0.0422 C   0  0  0  0  0  0  0  0  0  0  0  0
   -4.8849   -2.6213    0.0340 C   0  0  0  0  0  0  0  0  0  0  0  0
   -3.6387   -1.9716    0.0265 C   0  0  0  0  0  0  0  0  0  0  0  0
   -2.4379   -2.7014    0.0173 C   0  0  0  0  0  0  0  0  0  0  0  0
   -1.2449   -2.0397    0.0030 C   0  0  0  0  0  0  0  0  0  0  0  0
   -0.0847   -2.7479   -0.0119 O   0  0  0  0  0  0  0  0  0  0  0  0
   -0.1943   -4.1727   -0.0185 C   0  0  0  0  0  0  0  0  0  0  0  0
   -7.5891   -2.7032    0.0522 S   0  0  0  0  0  0  0  0  0  0  0  0
   -7.3979   -3.9676    0.7455 O   0  0  0  0  0  0  0  0  0  0  0  0
   -8.5187   -1.8330    0.7556 O   0  0  0  0  0  0  0  0  0  0  0  0
   -7.9728   -2.8981   -1.3374 O   0  0  0  0  0  1  0  0  0  0  0  0
    1.0053    1.8021    0.0021 H   0  0  0  0  0  0  0  0  0  0  0  0
   -0.5445    1.7859   -0.8732 H   0  0  0  0  0  0  0  0  0  0  0  0
   -0.5275    1.7763    0.9067 H   0  0  0  0  0  0  0  0  0  0  0  0
   -2.3027    1.1771    0.0207 H   0  0  0  0  0  0  0  0  0  0  0  0
   -4.7783    1.2522    0.0377 H   0  0  0  0  0  0  0  0  0  0  0  0
   -6.9078    0.0701    0.0504 H   0  0  0  0  0  0  0  0  0  0  0  0
   -4.9344   -3.7001    0.0335 H   0  0  0  0  0  0  0  0  0  0  0  0
   -2.4594   -3.7812    0.0162 H   0  0  0  0  0  0  0  0  0  0  0  0
   -0.7430   -4.4907   -0.9050 H   0  0  0  0  0  0  0  0  0  0  0  0
    0.8024   -4.6137   -0.0304 H   0  0  0  0  0  0  0  0  0  0  0  0
   -0.7259   -4.5003    0.8748 H   0  0  0  0  0  0  0  0  0  0  0  0
  1  2  1  0  0  0  0
  1 19  1  0  0  0  0
  1 20  1  0  0  0  0
  1 21  1  0  0  0  0
  2  3  1  0  0  0  0
  3 12  2  0  0  0  0
  3  4  1  0  0  0  0
  4  5  2  0  0  0  0
  4 22  1  0  0  0  0
  5 10  1  0  0  0  0
  5  6  1  0  0  0  0
  6  7  2  0  0  0  0
  6 23  1  0  0  0  0
  7  8  1  0  0  0  0
  7 24  1  0  0  0  0
  8  9  2  0  0  0  0
  8 15  1  0  0  0  0
  9 10  1  0  0  0  0
  9 25  1  0  0  0  0
 10 11  2  0  0  0  0
 11 12  1  0  0  0  0
 11 26  1  0  0  0  0
 12 13  1  0  0  0  0
 13 14  1  0  0  0  0
 14 27  1  0  0  0  0
 14 28  1  0  0  0  0
 14 29  1  0  0  0  0
 15 16  2  0  0  0  0
 15 17  2  0  0  0  0
 15 18  1  0  0  0  0
M  END
$$$$
ZINC13453623
 OpenBabel01252620473D

 49 50  0  0  0  0  0  0  0  0999 V2000
    6.5432    4.6882    2.9896 C   0  0  0  0  0  0  0  0  0  0  0  0
    5.8418    3.3642    2.8284 C   0  0  0  0  0  0  0  0  0  0  0  0
    4.6780    3.2834    2.0919 C   0  0  0  0  0  0  0  0  0  0  0  0
    4.0357    2.0677    1.9386 C   0  0  0  0  0  0  0  0  0  0  0  0
    4.5487    0.9273    2.5313 C   0  0  0  0  0  0  0  0  0  0  0  0
    5.7114    0.9937    3.2703 C   0  0  0  0  0  0  0  0  0  0  0  0
    6.3680    2.2166    3.4243 C   0  0  0  0  0  0  0  0  0  0  0  0
    7.6135    2.2955    4.2148 C   0  0  0  0  0  0  0  0  0  0  0  0
    8.1424    3.3716    4.4091 O   0  0  0  0  0  0  0  0  0  0  0  0
    3.7186   -0.6145    2.3356 S   0  0  0  0  0  0  0  0  0  0  0  0
    4.6954   -1.6288    2.5263 O   0  0  0  0  0  0  0  0  0  0  0  0
    2.9482   -0.5128    1.1459 O   0  0  0  0  0  0  0  0  0  0  0  0
    2.6419   -0.7532    3.5862 N   0  0  0  0  0  0  0  0  0  0  0  0
    1.6280    0.1861    3.7380 C   0  0  0  0  0  0  0  0  0  0  0  0
    1.0181    0.7382    2.6211 C   0  0  0  0  0  0  0  0  0  0  0  0
    0.0118    1.6775    2.7728 C   0  0  0  0  0  0  0  0  0  0  0  0
   -0.4026    2.0658    4.0486 C   0  0  0  0  0  0  0  0  0  0  0  0
    0.1913    1.5207    5.1663 C   0  0  0  0  0  0  0  0  0  0  0  0
    1.2138    0.5742    5.0228 C   0  0  0  0  0  0  0  0  0  0  0  0
    1.8505   -0.0109    6.2120 C   0  0  0  0  0  0  0  0  0  0  0  0
    2.7376   -0.8321    6.0844 O   0  0  0  0  0  0  0  0  0  0  0  0
   -1.3956    2.9856    4.1885 O   0  0  0  0  0  0  0  0  0  0  0  0
   -1.7707    3.3377    5.5217 C   0  0  0  0  0  0  0  0  0  0  0  0
   -0.5782    2.2191    1.6764 O   0  0  0  0  0  0  0  0  0  0  0  0
   -0.1069    1.7781    0.4015 C   0  0  0  0  0  0  0  0  0  0  0  0
   -0.8846    2.4934   -0.7051 C   0  0  0  0  0  0  0  0  0  0  0  0
   -0.5991    3.8928   -0.6598 O   0  0  0  0  0  0  0  0  0  0  0  0
   -1.2790    4.6573   -1.6575 C   0  0  0  0  0  0  0  0  0  0  0  0
    7.3514    4.7623    2.2620 H   0  0  0  0  0  0  0  0  0  0  0  0
    5.8323    5.4982    2.8267 H   0  0  0  0  0  0  0  0  0  0  0  0
    6.9533    4.7619    3.9969 H   0  0  0  0  0  0  0  0  0  0  0  0
    4.2701    4.1704    1.6301 H   0  0  0  0  0  0  0  0  0  0  0  0
    3.1273    2.0093    1.3574 H   0  0  0  0  0  0  0  0  0  0  0  0
    6.1133    0.1021    3.7283 H   0  0  0  0  0  0  0  0  0  0  0  0
    2.7187   -1.4896    4.2128 H   0  0  0  0  0  0  0  0  0  0  0  0
    1.3314    0.4385    1.6319 H   0  0  0  0  0  0  0  0  0  0  0  0
   -0.1310    1.8232    6.1517 H   0  0  0  0  0  0  0  0  0  0  0  0
   -2.1185    2.4488    6.0480 H   0  0  0  0  0  0  0  0  0  0  0  0
   -0.9093    3.7550    6.0432 H   0  0  0  0  0  0  0  0  0  0  0  0
   -2.5703    4.0778    5.4907 H   0  0  0  0  0  0  0  0  0  0  0  0
   -0.2545    0.7019    0.3119 H   0  0  0  0  0  0  0  0  0  0  0  0
    0.9543    2.0085    0.3069 H   0  0  0  0  0  0  0  0  0  0  0  0
   -0.5880    2.0932   -1.6746 H   0  0  0  0  0  0  0  0  0  0  0  0
   -1.9531    2.3356   -0.5584 H   0  0  0  0  0  0  0  0  0  0  0  0
   -0.9906    4.3020   -2.6468 H   0  0  0  0  0  0  0  0  0  0  0  0
   -2.3557    4.5445   -1.5306 H   0  0  0  0  0  0  0  0  0  0  0  0
   -1.0094    5.7085   -1.5561 H   0  0  0  0  0  0  0  0  0  0  0  0
    8.1628    1.1740    4.7201 O   0  0  0  0  0  1  0  0  0  0  0  0
    1.4504    0.3634    7.4437 O   0  0  0  0  0  1  0  0  0  0  0  0
  1  2  1  0  0  0  0
  1 29  1  0  0  0  0
  1 30  1  0  0  0  0
  1 31  1  0  0  0  0
  2  7  2  0  0  0  0
  2  3  1  0  0  0  0
  3  4  2  0  0  0  0
  3 32  1  0  0  0  0
  4  5  1  0  0  0  0
  4 33  1  0  0  0  0
  5  6  2  0  0  0  0
  5 10  1  0  0  0  0
  6  7  1  0  0  0  0
  6 34  1  0  0  0  0
  7  8  1  0  0  0  0
  8  9  2  0  0  0  0
  8 48  1  0  0  0  0
 10 11  2  0  0  0  0
 10 12  2  0  0  0  0
 10 13  1  0  0  0  0
 13 14  1  0  0  0  0
 13 35  1  0  0  0  0
 14 19  2  0  0  0  0
 14 15  1  0  0  0  0
 15 16  2  0  0  0  0
 15 36  1  0  0  0  0
 16 17  1  0  0  0  0
 16 24  1  0  0  0  0
 17 18  2  0  0  0  0
 17 22  1  0  0  0  0
 18 19  1  0  0  0  0
 18 37  1  0  0  0  0
 19 20  1  0  0  0  0
 20 21  2  0  0  0  0
 20 49  1  0  0  0  0
 22 23  1  0  0  0  0
 23 38  1  0  0  0  0
 23 39  1  0  0  0  0
 23 40  1  0  0  0  0
 24 25  1  0  0  0  0
 25 26  1  0  0  0  0
 25 41  1  0  0  0  0
 25 42  1  0  0  0  0
 26 27  1  0  0  0  0
 26 43  1  0  0  0  0
 26 44  1  0  0  0  0
 27 28  1  0  0  0  0
 28 45  1  0  0  0  0
 28 46  1  0  0  0  0
 28 47  1  0  0  0  0
M  END
$$$$
ZINC13417045
 OpenBabel01252620473D

 39 41  0  0  0  0  0  0  0  0999 V2000
    3.1969    2.4996    1.0769 C   0  0  0  0  0  0  0  0  0  0  0  0
    1.9501    1.8981    1.0534 C   0  0  0  0  0  0  0  0  0  0  0  0
    1.1025    2.0907   -0.0366 C   0  0  0  0  0  0  0  0  0  0  0  0
    1.5075    2.8839   -1.0960 C   0  0  0  0  0  0  0  0  0  0  0  0
    2.7526    3.4843   -1.0726 C   0  0  0  0  0  0  0  0  0  0  0  0
    3.5992    3.2941    0.0115 C   0  0  0  0  0  0  0  0  0  0  0  0
    4.8600    3.9048    0.0308 N   0  0  0  0  0  0  0  0  0  0  0  0
    5.9073    3.2709    0.5944 C   0  0  0  0  0  0  0  0  0  0  0  0
    5.7820    2.1344    0.9992 O   0  0  0  0  0  0  0  0  0  0  0  0
    7.2341    3.9742    0.7218 C   0  0  0  0  0  0  0  0  0  0  0  0
    8.4291    2.8692    1.5136 S   0  0  0  0  0  0  0  0  0  0  0  0
    9.8464    3.9158    1.5346 C   0  0  0  0  0  0  0  0  0  0  0  0
   11.0549    3.6663    2.0033 N   0  0  0  0  0  0  0  0  0  0  0  0
   12.0134    4.5708    1.9354 C   0  0  0  0  0  0  0  0  0  0  0  0
   11.7286    5.7735    1.3813 C   0  0  0  0  0  0  0  0  0  0  0  0
   10.0098    5.5431    0.9509 S   0  0  0  0  0  0  0  0  0  0  0  0
   13.3919    4.2744    2.4672 C   0  0  0  0  0  0  0  0  0  0  0  0
   13.2918    3.8353    3.9054 C   0  0  0  0  0  0  0  0  0  0  0  0
   12.2118    3.7697    4.4432 O   0  0  0  0  0  0  0  0  0  0  0  0
    3.1846    4.3321   -2.2066 N   0  0  0  0  0  4  0  0  0  0  0  0
    2.4829    4.4275   -3.1976 O   0  0  0  0  0  0  0  0  0  0  0  0
    4.2418    4.9341   -2.1487 O   0  5  0  0  0  0  0  0  0  0  0  0
   -0.1199    1.4930   -0.0469 O   0  0  0  0  0  0  0  0  0  0  0  0
   -0.2179    0.2193    0.5957 C   0  0  0  0  0  0  0  0  0  0  0  0
    0.4627    0.2765    1.9397 C   0  0  0  0  0  0  0  0  0  0  0  0
    0.0588   -0.4076    2.8563 O   0  0  0  0  0  0  0  0  0  0  0  0
    1.5244    1.0922    2.1189 N   0  0  0  0  0  0  0  0  0  0  0  0
    3.8544    2.3511    1.9208 H   0  0  0  0  0  0  0  0  0  0  0  0
    0.8514    3.0334   -1.9407 H   0  0  0  0  0  0  0  0  0  0  0  0
    4.9790    4.7839   -0.3615 H   0  0  0  0  0  0  0  0  0  0  0  0
    7.5954    4.2504   -0.2688 H   0  0  0  0  0  0  0  0  0  0  0  0
    7.1126    4.8721    1.3276 H   0  0  0  0  0  0  0  0  0  0  0  0
   12.3651    6.6343    1.2386 H   0  0  0  0  0  0  0  0  0  0  0  0
   13.8466    3.4799    1.8755 H   0  0  0  0  0  0  0  0  0  0  0  0
   14.0068    5.1722    2.4035 H   0  0  0  0  0  0  0  0  0  0  0  0
   -1.2681   -0.0388    0.7315 H   0  0  0  0  0  0  0  0  0  0  0  0
    0.2642   -0.5374   -0.0233 H   0  0  0  0  0  0  0  0  0  0  0  0
    1.9851    1.1202    2.9721 H   0  0  0  0  0  0  0  0  0  0  0  0
   14.4024    3.5169    4.5888 O   0  0  0  0  0  1  0  0  0  0  0  0
  1  6  2  0  0  0  0
  1  2  1  0  0  0  0
  1 28  1  0  0  0  0
  2 27  1  0  0  0  0
  2  3  2  0  0  0  0
  3  4  1  0  0  0  0
  3 23  1  0  0  0  0
  4  5  2  0  0  0  0
  4 29  1  0  0  0  0
  5  6  1  0  0  0  0
  5 20  1  0  0  0  0
  6  7  1  0  0  0  0
  7  8  1  0  0  0  0
  7 30  1  0  0  0  0
  8  9  2  0  0  0  0
  8 10  1  0  0  0  0
 10 11  1  0  0  0  0
 10 31  1  0  0  0  0
 10 32  1  0  0  0  0
 11 12  1  0  0  0  0
 12 16  1  0  0  0  0
 12 13  2  0  0  0  0
 13 14  1  0  0  0  0
 14 15  2  0  0  0  0
 14 17  1  0  0  0  0
 15 16  1  0  0  0  0
 15 33  1  0  0  0  0
 17 18  1  0  0  0  0
 17 34  1  0  0  0  0
 17 35  1  0  0  0  0
 18 19  2  0  0  0  0
 18 39  1  0  0  0  0
 20 21  2  0  0  0  0
 20 22  1  0  0  0  0
 23 24  1  0  0  0  0
 24 25  1  0  0  0  0
 24 36  1  0  0  0  0
 24 37  1  0  0  0  0
 25 26  2  0  0  0  0
 25 27  1  0  0  0  0
 27 38  1  0  0  0  0
M  CHG  1  22  -1
M  END
$$$$
ZINC59402679
 OpenBabel01252620473D

 50 52  0  0  0  0  0  0  0  0999 V2000
   -0.0187    1.5258    0.0104 C   0  0  0  0  0  0  0  0  0  0  0  0
    0.0021   -0.0041    0.0020 C   0  0  0  0  0  0  0  0  0  0  0  0
   -1.3386   -0.4987    0.0122 O   0  0  0  0  0  0  0  0  0  0  0  0
   -1.4964   -1.8317    0.0065 C   0  0  0  0  0  0  0  0  0  0  0  0
   -0.5283   -2.5546   -0.0066 O   0  0  0  0  0  0  0  0  0  0  0  0
   -2.8809   -2.4266    0.0165 C   0  0  0  0  0  0  0  0  0  0  0  0
   -2.7817   -3.9303    0.0075 C   0  0  0  0  0  0  0  0  0  0  0  0
   -2.7222   -4.7796    1.0137 N   0  0  0  0  0  0  0  0  0  0  0  0
   -2.6420   -6.0168    0.7699 N   0  0  0  0  0  0  0  0  0  0  0  0
   -2.6160   -6.4837   -0.4629 C   0  0  0  0  0  0  0  0  0  0  0  0
   -2.7192   -5.0668   -1.3706 S   0  0  0  0  0  0  0  0  0  0  0  0
   -2.5313   -7.8012   -0.9001 N   0  0  0  0  0  0  0  0  0  0  0  0
   -2.4626   -8.8055   -0.0040 C   0  0  0  0  0  0  0  0  0  0  0  0
   -2.4746   -8.5604    1.1837 O   0  0  0  0  0  0  0  0  0  0  0  0
   -2.3708  -10.2332   -0.4778 C   0  0  0  0  0  0  0  0  0  0  0  0
   -2.2934  -11.3422    0.9556 S   0  0  0  0  0  0  0  0  0  0  0  0
   -2.1905  -12.9511    0.2447 C   0  0  0  0  0  0  0  0  0  0  0  0
   -2.1818  -13.0694   -1.0767 N   0  0  0  0  0  0  0  0  0  0  0  0
   -2.1057  -14.2589   -1.6561 C   0  0  0  0  0  0  0  0  0  0  0  0
   -2.0971  -14.3673   -3.0051 O   0  5  0  0  0  0  0  0  0  0  0  0
   -2.0334  -15.4087   -0.8453 C   0  0  0  0  0  0  0  0  0  0  0  0
   -2.0456  -15.2357    0.5541 C   0  0  0  0  0  0  0  0  0  0  0  0
   -2.1190  -14.0032    1.0475 N   0  0  0  0  0  0  0  0  0  0  0  0
   -1.9720  -16.4064    1.4587 C   0  0  0  0  0  0  0  0  0  0  0  0
   -2.5842  -17.6075    1.1000 C   0  0  0  0  0  0  0  0  0  0  0  0
   -2.5136  -18.6965    1.9446 C   0  0  0  0  0  0  0  0  0  0  0  0
   -1.8377  -18.6013    3.1471 C   0  0  0  0  0  0  0  0  0  0  0  0
   -1.2257  -17.4101    3.5120 C   0  0  0  0  0  0  0  0  0  0  0  0
   -1.2861  -16.3131    2.6684 C   0  0  0  0  0  0  0  0  0  0  0  0
   -0.5629  -17.3215    4.6952 O   0  0  0  0  0  0  0  0  0  0  0  0
   -0.5364  -18.4929    5.5132 C   0  0  0  0  0  0  0  0  0  0  0  0
   -1.9503  -16.7153   -1.4255 C   0  0  0  0  0  0  0  0  0  0  0  0
   -1.8844  -17.7518   -1.8857 N   0  0  0  0  0  0  0  0  0  0  0  0
    1.0039    1.9031    0.0027 H   0  0  0  0  0  0  0  0  0  0  0  0
   -0.5459    1.8868   -0.8726 H   0  0  0  0  0  0  0  0  0  0  0  0
   -0.5289    1.8773    0.9072 H   0  0  0  0  0  0  0  0  0  0  0  0
    0.5123   -0.3556   -0.8948 H   0  0  0  0  0  0  0  0  0  0  0  0
    0.5293   -0.3651    0.8851 H   0  0  0  0  0  0  0  0  0  0  0  0
   -3.4091   -2.1027    0.9134 H   0  0  0  0  0  0  0  0  0  0  0  0
   -3.4261   -2.0931   -0.8665 H   0  0  0  0  0  0  0  0  0  0  0  0
   -2.5217   -7.9973   -1.8500 H   0  0  0  0  0  0  0  0  0  0  0  0
   -3.2489  -10.4744   -1.0768 H   0  0  0  0  0  0  0  0  0  0  0  0
   -1.4727  -10.3582   -1.0828 H   0  0  0  0  0  0  0  0  0  0  0  0
   -3.1136  -17.6850    0.1618 H   0  0  0  0  0  0  0  0  0  0  0  0
   -2.9880  -19.6258    1.6657 H   0  0  0  0  0  0  0  0  0  0  0  0
   -1.7861  -19.4564    3.8047 H   0  0  0  0  0  0  0  0  0  0  0  0
   -0.8068  -15.3869    2.9492 H   0  0  0  0  0  0  0  0  0  0  0  0
   -1.5561  -18.7802    5.7695 H   0  0  0  0  0  0  0  0  0  0  0  0
   -0.0559  -19.3056    4.9686 H   0  0  0  0  0  0  0  0  0  0  0  0
    0.0231  -18.2863    6.4256 H   0  0  0  0  0  0  0  0  0  0  0  0
  1  2  1  0  0  0  0
  1 34  1  0  0  0  0
  1 35  1  0  0  0  0
  1 36  1  0  0  0  0
  2  3  1  0  0  0  0
  2 37  1  0  0  0  0
  2 38  1  0  0  0  0
  3  4  1  0  0  0  0
  4  5  2  0  0  0  0
  4  6  1  0  0  0  0
  6  7  1  0  0  0  0
  6 39  1  0  0  0  0
  6 40  1  0  0  0  0
  7 11  1  0  0  0  0
  7  8  2  0  0  0  0
  8  9  1  0  0  0  0
  9 10  2  0  0  0  0
 10 11  1  0  0  0  0
 10 12  1  0  0  0  0
 12 13  1  0  0  0  0
 12 41  1  0  0  0  0
 13 14  2  0  0  0  0
 13 15  1  0  0  0  0
 15 16  1  0  0  0  0
 15 42  1  0  0  0  0
 15 43  1  0  0  0  0
 16 17  1  0  0  0  0
 17 23  2  0  0  0  0
 17 18  1  0  0  0  0
 18 19  2  0  0  0  0
 19 20  1  0  0  0  0
 19 21  1  0  0  0  0
 21 22  2  0  0  0  0
 21 32  1  0  0  0  0
 22 23  1  0  0  0  0
 22 24  1  0  0  0  0
 24 29  2  0  0  0  0
 24 25  1  0  0  0  0
 25 26  2  0  0  0  0
 25 44  1  0  0  0  0
 26 27  1  0  0  0  0
 26 45  1  0  0  0  0
 27 28  2  0  0  0  0
 27 46  1  0  0  0  0
 28 29  1  0  0  0  0
 28 30  1  0  0  0  0
 29 47  1  0  0  0  0
 30 31  1  0  0  0  0
 31 48  1  0  0  0  0
 31 49  1  0  0  0  0
 31 50  1  0  0  0  0
 32 33  3  0  0  0  0
M  CHG  1  20  -1
M  END
$$$$
ZINC13942405
 OpenBabel01252620473D

 47 49  0  0  0  0  0  0  0  0999 V2000
    2.4886    8.3585    6.0397 C   0  0  0  0  0  0  0  0  0  0  0  0
    2.7421    8.2901    4.7563 C   0  0  0  0  0  0  0  0  0  0  0  0
    1.6250    8.0229    3.7808 C   0  0  0  0  0  0  0  0  0  0  0  0
    1.5956    9.1124    2.7401 C   0  0  0  0  0  0  0  0  0  0  0  0
    0.7580   10.1995    2.9006 C   0  0  0  0  0  0  0  0  0  0  0  0
    0.7268   11.1967    1.9437 C   0  0  0  0  0  0  0  0  0  0  0  0
    1.5367   11.1115    0.8261 C   0  0  0  0  0  0  0  0  0  0  0  0
    2.3793   10.0291    0.6633 C   0  0  0  0  0  0  0  0  0  0  0  0
    2.4128    9.0272    1.6225 C   0  0  0  0  0  0  0  0  0  0  0  0
    3.2410    7.9613    1.4647 O   0  0  0  0  0  0  0  0  0  0  0  0
    4.0497    7.9369    0.2868 C   0  0  0  0  0  0  0  0  0  0  0  0
    4.9090    6.6709    0.2842 C   0  0  0  0  0  0  0  0  0  0  0  0
    4.0645    5.5223    0.1868 O   0  0  0  0  0  0  0  0  0  0  0  0
    4.6734    4.3094    0.1718 C   0  0  0  0  0  0  0  0  0  0  0  0
    6.0536    4.2222    0.2552 C   0  0  0  0  0  0  0  0  0  0  0  0
    6.6729    2.9872    0.2336 C   0  0  0  0  0  0  0  0  0  0  0  0
    5.9221    1.8269    0.1354 C   0  0  0  0  0  0  0  0  0  0  0  0
    4.5482    1.8919    0.0577 C   0  0  0  0  0  0  0  0  0  0  0  0
    3.9069    3.1361    0.0779 C   0  0  0  0  0  0  0  0  0  0  0  0
    2.4435    3.2143   -0.0044 C   0  0  0  0  0  0  0  0  0  0  0  0
    1.7678    2.4081   -0.8627 C   0  0  0  0  0  0  0  0  0  0  0  0
    2.2851    1.4988   -1.9045 C   0  0  0  0  0  0  0  0  0  0  0  0
    3.4784    1.3752   -2.1102 O   0  5  0  0  0  0  0  0  0  0  0  0
    1.3865    0.8251   -2.6026 N   0  0  0  0  0  0  0  0  0  0  0  0
    0.0652    0.9653   -2.3718 C   0  0  0  0  0  0  0  0  0  0  0  0
   -1.2404    0.1895   -3.1619 S   0  0  0  0  0  0  0  0  0  0  0  0
    0.0072    2.1566   -1.0429 S   0  0  0  0  0  0  0  0  0  0  0  0
    6.5995    0.5109    0.1134 N   0  0  0  0  0  4  0  0  0  0  0  0
    5.9424   -0.5110    0.0267 O   0  0  0  0  0  0  0  0  0  0  0  0
    7.8141    0.4499    0.1819 O   0  5  0  0  0  0  0  0  0  0  0  0
    3.3040    8.5535    6.7518 H   0  0  0  0  0  0  0  0  0  0  0  0
    1.4603    8.2209    6.4053 H   0  0  0  0  0  0  0  0  0  0  0  0
    3.7704    8.4277    4.3907 H   0  0  0  0  0  0  0  0  0  0  0  0
    1.7905    7.0521    3.2908 H   0  0  0  0  0  0  0  0  0  0  0  0
    0.6655    8.0034    4.3184 H   0  0  0  0  0  0  0  0  0  0  0  0
    0.1242   10.2682    3.7724 H   0  0  0  0  0  0  0  0  0  0  0  0
    0.0684   12.0436    2.0690 H   0  0  0  0  0  0  0  0  0  0  0  0
    1.5102   11.8916    0.0797 H   0  0  0  0  0  0  0  0  0  0  0  0
    3.0116    9.9630   -0.2097 H   0  0  0  0  0  0  0  0  0  0  0  0
    3.4024    7.9425   -0.6025 H   0  0  0  0  0  0  0  0  0  0  0  0
    4.7018    8.8227    0.2713 H   0  0  0  0  0  0  0  0  0  0  0  0
    5.5953    6.6954   -0.5751 H   0  0  0  0  0  0  0  0  0  0  0  0
    5.4905    6.6205    1.2166 H   0  0  0  0  0  0  0  0  0  0  0  0
    6.6468    5.1215    0.3323 H   0  0  0  0  0  0  0  0  0  0  0  0
    7.7495    2.9260    0.2940 H   0  0  0  0  0  0  0  0  0  0  0  0
    3.9671    0.9849   -0.0191 H   0  0  0  0  0  0  0  0  0  0  0  0
    1.8943    3.9261    0.6294 H   0  0  0  0  0  0  0  0  0  0  0  0
  1  2  2  0  0  0  0
  1 31  1  0  0  0  0
  1 32  1  0  0  0  0
  2  3  1  0  0  0  0
  2 33  1  0  0  0  0
  3  4  1  0  0  0  0
  3 34  1  0  0  0  0
  3 35  1  0  0  0  0
  4  9  2  0  0  0  0
  4  5  1  0  0  0  0
  5  6  2  0  0  0  0
  5 36  1  0  0  0  0
  6  7  1  0  0  0  0
  6 37  1  0  0  0  0
  7  8  2  0  0  0  0
  7 38  1  0  0  0  0
  8  9  1  0  0  0  0
  8 39  1  0  0  0  0
  9 10  1  0  0  0  0
 10 11  1  0  0  0  0
 11 12  1  0  0  0  0
 11 40  1  0  0  0  0
 11 41  1  0  0  0  0
 12 13  1  0  0  0  0
 12 42  1  0  0  0  0
 12 43  1  0  0  0  0
 13 14  1  0  0  0  0
 14 19  2  0  0  0  0
 14 15  1  0  0  0  0
 15 16  2  0  0  0  0
 15 44  1  0  0  0  0
 16 17  1  0  0  0  0
 16 45  1  0  0  0  0
 17 18  2  0  0  0  0
 17 28  1  0  0  0  0
 18 19  1  0  0  0  0
 18 46  1  0  0  0  0
 19 20  1  0  0  0  0
 20 21  2  0  0  0  0
 20 47  1  0  0  0  0
 21 27  1  0  0  0  0
 21 22  1  0  0  0  0
 22 23  1  0  0  0  0
 22 24  2  0  0  0  0
 24 25  1  0  0  0  0
 25 26  2  0  0  0  0
 25 27  1  0  0  0  0
 28 29  2  0  0  0  0
 28 30  1  0  0  0  0
M  CHG  2  23  -1  30  -1
M  END
$$$$
ZINC43584636
 OpenBabel01252620473D

 38 39  0  0  1  0  0  0  0  0999 V2000
   -0.0184    1.5028    0.0103 C   0  0  0  0  0  0  0  0  0  0  0  0
    0.0021   -0.0041    0.0020 C   0  0  0  0  0  0  0  0  0  0  0  0
   -1.1286   -0.7158    0.0039 C   0  0  0  0  0  0  0  0  0  0  0  0
   -0.5085   -2.3876   -0.0083 S   0  0  0  0  0  0  0  0  0  0  0  0
    1.1381   -2.0479   -0.0148 C   0  0  0  0  0  0  0  0  0  0  0  0
    2.0718   -2.8304   -0.0240 O   0  0  0  0  0  0  0  0  0  0  0  0
    1.1756   -0.6990   -0.0134 N   0  0  0  0  0  0  0  0  0  0  0  0
    2.0248   -0.2304   -0.0197 H   0  0  0  0  0  0  0  0  0  0  0  0
   -2.7972   -0.1500    0.0162 S   0  0  0  0  0  0  0  0  0  0  0  0
   -3.4920   -0.9551    0.9588 O   0  0  0  0  0  0  0  0  0  0  0  0
   -2.7450    1.2665    0.1160 O   0  0  0  0  0  0  0  0  0  0  0  0
   -3.4427   -0.4964   -1.4690 N   0  0  0  0  0  0  0  0  0  0  0  0
   -3.3499    0.4721   -2.5699 C   0  0  0  0  0  0  0  0  0  0  0  0
   -4.7555    0.7248   -3.1241 C   0  0  0  0  0  0  0  0  0  0  0  0
   -5.3934   -0.6106   -3.5139 C   0  0  0  0  0  0  0  0  0  0  0  0
   -5.5155   -1.5005   -2.2748 C   0  0  2  0  0  0  0  0  0  0  0  0
   -6.1180   -0.9938   -1.5209 H   0  0  0  0  0  0  0  0  0  0  0  0
   -4.1136   -1.7807   -1.7126 C   0  0  0  0  0  0  0  0  0  0  0  0
   -6.1840   -2.8220   -2.6591 C   0  0  0  0  0  0  0  0  0  0  0  0
   -7.6219   -2.5546   -3.1082 C   0  0  0  0  0  0  0  0  0  0  0  0
   -8.2803   -3.8562   -3.4867 C   0  0  0  0  0  0  0  0  0  0  0  0
   -7.6572   -4.9010   -3.4048 O   0  0  0  0  0  0  0  0  0  0  0  0
   -9.4361   -3.8645   -3.8748 O   0  0  0  0  0  1  0  0  0  0  0  0
    1.0042    1.8801    0.0026 H   0  0  0  0  0  0  0  0  0  0  0  0
   -0.5455    1.8639   -0.8728 H   0  0  0  0  0  0  0  0  0  0  0  0
   -0.5286    1.8543    0.9071 H   0  0  0  0  0  0  0  0  0  0  0  0
   -2.9296    1.4072   -2.1995 H   0  0  0  0  0  0  0  0  0  0  0  0
   -2.7132    0.0698   -3.3579 H   0  0  0  0  0  0  0  0  0  0  0  0
   -5.3651    1.2105   -2.3622 H   0  0  0  0  0  0  0  0  0  0  0  0
   -4.6902    1.3669   -4.0025 H   0  0  0  0  0  0  0  0  0  0  0  0
   -6.3842   -0.4316   -3.9315 H   0  0  0  0  0  0  0  0  0  0  0  0
   -4.7704   -1.1073   -4.2577 H   0  0  0  0  0  0  0  0  0  0  0  0
   -3.5380   -2.3630   -2.4321 H   0  0  0  0  0  0  0  0  0  0  0  0
   -4.1974   -2.3325   -0.7763 H   0  0  0  0  0  0  0  0  0  0  0  0
   -5.6291   -3.2863   -3.4743 H   0  0  0  0  0  0  0  0  0  0  0  0
   -6.1907   -3.4898   -1.7976 H   0  0  0  0  0  0  0  0  0  0  0  0
   -8.1768   -2.0903   -2.2929 H   0  0  0  0  0  0  0  0  0  0  0  0
   -7.6152   -1.8868   -3.9697 H   0  0  0  0  0  0  0  0  0  0  0  0
  1  2  1  0  0  0  0
  1 24  1  0  0  0  0
  1 25  1  0  0  0  0
  1 26  1  0  0  0  0
  2  7  1  0  0  0  0
  2  3  2  0  0  0  0
  3  4  1  0  0  0  0
  3  9  1  0  0  0  0
  4  5  1  0  0  0  0
  5  6  2  0  0  0  0
  5  7  1  0  0  0  0
  7  8  1  0  0  0  0
  9 10  2  0  0  0  0
  9 11  2  0  0  0  0
  9 12  1  0  0  0  0
 12 18  1  0  0  0  0
 12 13  1  0  0  0  0
 13 14  1  0  0  0  0
 13 27  1  0  0  0  0
 13 28  1  0  0  0  0
 14 15  1  0  0  0  0
 14 29  1  0  0  0  0
 14 30  1  0  0  0  0
 15 16  1  0  0  0  0
 15 31  1  0  0  0  0
 15 32  1  0  0  0  0
 16 17  1  1  0  0  0
 16 18  1  0  0  0  0
 16 19  1  0  0  0  0
 18 33  1  0  0  0  0
 18 34  1  0  0  0  0
 19 20  1  0  0  0  0
 19 35  1  0  0  0  0
 19 36  1  0  0  0  0
 20 21  1  0  0  0  0
 20 37  1  0  0  0  0
 20 38  1  0  0  0  0
 21 22  2  0  0  0  0
 21 23  1  0  0  0  0
M  END
$$$$
ZINC13089651
 OpenBabel01252620473D

 39 41  0  0  0  0  0  0  0  0999 V2000
   -5.5687   14.5899   -0.8114 C   0  0  0  0  0  0  0  0  0  0  0  0
   -4.9964   13.3386   -0.7094 C   0  0  0  0  0  0  0  0  0  0  0  0
   -3.6075   13.2125   -0.6463 C   0  0  0  0  0  0  0  0  0  0  0  0
   -2.8059   14.3544   -0.6976 C   0  0  0  0  0  0  0  0  0  0  0  0
   -3.3909   15.5999   -0.8045 C   0  0  0  0  0  0  0  0  0  0  0  0
   -4.7695   15.7178   -0.8613 C   0  0  0  0  0  0  0  0  0  0  0  0
   -2.3078   17.1484   -0.8742 Br  0  0  0  0  0  0  0  0  0  0  0  0
   -2.9884   11.8759   -0.5318 C   0  0  0  0  0  0  0  0  0  0  0  0
   -1.7048   11.6181   -0.4695 N   0  0  0  0  0  0  0  0  0  0  0  0
   -1.5278   10.3473   -0.3749 N   0  0  0  0  0  0  0  0  0  0  0  0
   -2.6935    9.7427   -0.3731 C   0  0  0  0  0  0  0  0  0  0  0  0
   -3.6412   10.6937   -0.4780 O   0  0  0  0  0  0  0  0  0  0  0  0
   -2.9671    8.0057   -0.2616 S   0  0  0  0  0  0  0  0  0  0  0  0
   -1.2561    7.4238   -0.1611 C   0  0  0  0  0  0  0  0  0  0  0  0
   -1.2420    5.9206   -0.0558 C   0  0  0  0  0  0  0  0  0  0  0  0
   -2.2861    5.3033   -0.0494 O   0  0  0  0  0  0  0  0  0  0  0  0
   -0.0693    5.2620    0.0311 N   0  0  0  0  0  0  0  0  0  0  0  0
   -0.0499    3.8623    0.0175 C   0  0  0  0  0  0  0  0  0  0  0  0
   -0.9871    3.1646   -0.7299 C   0  0  0  0  0  0  0  0  0  0  0  0
   -0.9707    1.7684   -0.7458 C   0  0  0  0  0  0  0  0  0  0  0  0
   -0.0112    1.0760   -0.0095 C   0  0  0  0  0  0  0  0  0  0  0  0
    0.9253    1.7803    0.7450 C   0  0  0  0  0  0  0  0  0  0  0  0
    0.9062    3.1765    0.7520 C   0  0  0  0  0  0  0  0  0  0  0  0
    1.9407    1.0505    1.5322 C   0  0  0  0  0  0  0  0  0  0  0  0
    2.7566    1.6650    2.1896 O   0  0  0  0  0  0  0  0  0  0  0  0
   -1.9698    1.0260   -1.5420 C   0  0  0  0  0  0  0  0  0  0  0  0
   -2.8058    1.6302   -2.1835 O   0  0  0  0  0  0  0  0  0  0  0  0
   -6.6433   14.6887   -0.8565 H   0  0  0  0  0  0  0  0  0  0  0  0
   -5.6217   12.4587   -0.6750 H   0  0  0  0  0  0  0  0  0  0  0  0
   -1.7306   14.2634   -0.6533 H   0  0  0  0  0  0  0  0  0  0  0  0
   -5.2226   16.6945   -0.9453 H   0  0  0  0  0  0  0  0  0  0  0  0
   -0.7770    7.8541    0.7183 H   0  0  0  0  0  0  0  0  0  0  0  0
   -0.7149    7.7304   -1.0562 H   0  0  0  0  0  0  0  0  0  0  0  0
    0.7612    5.7580    0.1031 H   0  0  0  0  0  0  0  0  0  0  0  0
   -1.7306    3.7018   -1.3000 H   0  0  0  0  0  0  0  0  0  0  0  0
    0.0038   -0.0039   -0.0200 H   0  0  0  0  0  0  0  0  0  0  0  0
    1.6345    3.7230    1.3328 H   0  0  0  0  0  0  0  0  0  0  0  0
    1.9616   -0.2964    1.5209 O   0  0  0  0  0  1  0  0  0  0  0  0
   -1.9536   -0.3209   -1.5565 O   0  0  0  0  0  1  0  0  0  0  0  0
  1  6  2  0  0  0  0
  1  2  1  0  0  0  0
  1 28  1  0  0  0  0
  2  3  2  0  0  0  0
  2 29  1  0  0  0  0
  3  4  1  0  0  0  0
  3  8  1  0  0  0  0
  4  5  2  0  0  0  0
  4 30  1  0  0  0  0
  5  6  1  0  0  0  0
  5  7  1  0  0  0  0
  6 31  1  0  0  0  0
  8 12  1  0  0  0  0
  8  9  2  0  0  0  0
  9 10  1  0  0  0  0
 10 11  2  0  0  0  0
 11 12  1  0  0  0  0
 11 13  1  0  0  0  0
 13 14  1  0  0  0  0
 14 15  1  0  0  0  0
 14 32  1  0  0  0  0
 14 33  1  0  0  0  0
 15 16  2  0  0  0  0
 15 17  1  0  0  0  0
 17 18  1  0  0  0  0
 17 34  1  0  0  0  0
 18 23  2  0  0  0  0
 18 19  1  0  0  0  0
 19 20  2  0  0  0  0
 19 35  1  0  0  0  0
 20 21  1  0  0  0  0
 20 26  1  0  0  0  0
 21 22  2  0  0  0  0
 21 36  1  0  0  0  0
 22 23  1  0  0  0  0
 22 24  1  0  0  0  0
 23 37  1  0  0  0  0
 24 25  2  0  0  0  0
 24 38  1  0  0  0  0
 26 27  2  0  0  0  0
 26 39  1  0  0  0  0
M  END
$$$$
ZINC12542698
 OpenBabel01252620473D

 57 60  0  0  1  0  0  0  0  0999 V2000
   -0.7510    1.4128    0.0602 C   0  0  0  0  0  0  0  0  0  0  0  0
   -0.5221   -0.0766    0.0405 C   0  0  0  0  0  0  0  0  0  0  0  0
   -0.4788   -0.7613   -1.1583 C   0  0  0  0  0  0  0  0  0  0  0  0
   -0.2638   -2.1405   -1.1263 C   0  0  0  0  0  0  0  0  0  0  0  0
   -0.1095   -2.7406    0.0505 N   0  0  0  0  0  0  0  0  0  0  0  0
   -0.1583   -2.0477    1.1701 C   0  0  0  0  0  0  0  0  0  0  0  0
   -0.3545   -0.7445    1.1731 N   0  0  0  0  0  0  0  0  0  0  0  0
    0.0211   -2.7645    2.4835 C   0  0  0  0  0  0  0  0  0  0  0  0
   -0.2124   -2.8722   -2.3016 N   0  0  0  0  0  2  0  0  0  0  0  0
    0.0434   -4.5075   -2.2483 S   0  0  0  0  0  0  0  0  0  0  0  0
    1.3607   -4.6965   -1.7500 O   0  0  0  0  0  0  0  0  0  0  0  0
   -1.0974   -5.0767   -1.6208 O   0  0  0  0  0  0  0  0  0  0  0  0
    0.0459   -5.0889   -3.9116 C   0  0  0  0  0  0  0  0  0  0  0  0
   -1.1368   -5.4941   -4.5026 C   0  0  0  0  0  0  0  0  0  0  0  0
   -1.1383   -5.9503   -5.8062 C   0  0  0  0  0  0  0  0  0  0  0  0
    0.0497   -6.0014   -6.5237 C   0  0  0  0  0  0  0  0  0  0  0  0
    1.2356   -5.5933   -5.9274 C   0  0  0  0  0  0  0  0  0  0  0  0
    1.2296   -5.1336   -4.6251 C   0  0  0  0  0  0  0  0  0  0  0  0
    0.0517   -6.4635   -7.8444 N   0  0  0  0  0  0  0  0  0  0  0  0
   -1.0115   -6.2340   -8.6403 C   0  0  0  0  0  0  0  0  0  0  0  0
   -1.9283   -5.5459   -8.2440 O   0  0  0  0  0  0  0  0  0  0  0  0
   -1.0611   -6.8323  -10.0225 C   0  0  0  0  0  0  0  0  0  0  0  0
   -2.3091   -6.4380  -10.6808 N   0  0  0  0  0  0  0  0  0  0  0  0
   -3.4597   -7.1588  -10.5929 C   0  0  0  0  0  0  0  0  0  0  0  0
   -3.5828   -8.2882  -10.1699 O   0  0  0  0  0  0  0  0  0  0  0  0
   -4.5416   -6.2736  -11.1239 C   0  0  2  0  0  0  0  0  0  0  0  0
   -4.9043   -5.6171  -10.3329 H   0  0  0  0  0  0  0  0  0  0  0  0
   -5.7109   -6.8806  -11.8625 C   0  0  0  0  0  0  0  0  0  0  0  0
   -6.6014   -5.7106  -12.3198 C   0  0  0  0  0  0  0  0  0  0  0  0
   -5.8339   -4.7025  -13.1680 C   0  0  0  0  0  0  0  0  0  0  0  0
   -4.5524   -4.2154  -12.4624 C   0  0  0  0  0  0  0  0  0  0  0  0
   -3.7310   -5.4479  -12.1670 C   0  0  1  0  0  0  0  0  0  0  0  0
   -3.6008   -6.0271  -13.0812 H   0  0  0  0  0  0  0  0  0  0  0  0
   -2.4321   -5.3124  -11.4350 C   0  0  0  0  0  0  0  0  0  0  0  0
   -1.6486   -4.3897  -11.5016 O   0  0  0  0  0  0  0  0  0  0  0  0
    0.2079    1.9284    0.0072 H   0  0  0  0  0  0  0  0  0  0  0  0
   -1.3643    1.6975   -0.7947 H   0  0  0  0  0  0  0  0  0  0  0  0
   -1.2620    1.6897    0.9823 H   0  0  0  0  0  0  0  0  0  0  0  0
   -0.6083   -0.2429   -2.0968 H   0  0  0  0  0  0  0  0  0  0  0  0
    1.0786   -2.7804    2.7472 H   0  0  0  0  0  0  0  0  0  0  0  0
   -0.5393   -2.2448    3.2606 H   0  0  0  0  0  0  0  0  0  0  0  0
   -0.3461   -3.7868    2.3927 H   0  0  0  0  0  0  0  0  0  0  0  0
   -2.0603   -5.4541   -3.9441 H   0  0  0  0  0  0  0  0  0  0  0  0
   -2.0622   -6.2673   -6.2670 H   0  0  0  0  0  0  0  0  0  0  0  0
    2.1612   -5.6322   -6.4827 H   0  0  0  0  0  0  0  0  0  0  0  0
    2.1509   -4.8122   -4.1621 H   0  0  0  0  0  0  0  0  0  0  0  0
    0.8183   -6.9491   -8.1872 H   0  0  0  0  0  0  0  0  0  0  0  0
   -0.2133   -6.4718  -10.6051 H   0  0  0  0  0  0  0  0  0  0  0  0
   -1.0162   -7.9190   -9.9499 H   0  0  0  0  0  0  0  0  0  0  0  0
   -5.3556   -7.4394  -12.7283 H   0  0  0  0  0  0  0  0  0  0  0  0
   -6.2712   -7.5379  -11.1976 H   0  0  0  0  0  0  0  0  0  0  0  0
   -7.4322   -6.1056  -12.9046 H   0  0  0  0  0  0  0  0  0  0  0  0
   -6.9990   -5.2036  -11.4407 H   0  0  0  0  0  0  0  0  0  0  0  0
   -5.5621   -5.1693  -14.1148 H   0  0  0  0  0  0  0  0  0  0  0  0
   -6.4764   -3.8451  -13.3683 H   0  0  0  0  0  0  0  0  0  0  0  0
   -3.9971   -3.5430  -13.1163 H   0  0  0  0  0  0  0  0  0  0  0  0
   -4.8067   -3.7091  -11.5312 H   0  0  0  0  0  0  0  0  0  0  0  0
  1  2  1  0  0  0  0
  1 36  1  0  0  0  0
  1 37  1  0  0  0  0
  1 38  1  0  0  0  0
  2  7  2  0  0  0  0
  2  3  1  0  0  0  0
  3  4  2  0  0  0  0
  3 39  1  0  0  0  0
  4  5  1  0  0  0  0
  4  9  1  0  0  0  0
  5  6  2  0  0  0  0
  6  7  1  0  0  0  0
  6  8  1  0  0  0  0
  8 40  1  0  0  0  0
  8 41  1  0  0  0  0
  8 42  1  0  0  0  0
  9 10  1  0  0  0  0
 10 11  2  0  0  0  0
 10 12  2  0  0  0  0
 10 13  1  0  0  0  0
 13 18  2  0  0  0  0
 13 14  1  0  0  0  0
 14 15  2  0  0  0  0
 14 43  1  0  0  0  0
 15 16  1  0  0  0  0
 15 44  1  0  0  0  0
 16 17  2  0  0  0  0
 16 19  1  0  0  0  0
 17 18  1  0  0  0  0
 17 45  1  0  0  0  0
 18 46  1  0  0  0  0
 19 20  1  0  0  0  0
 19 47  1  0  0  0  0
 20 21  2  0  0  0  0
 20 22  1  0  0  0  0
 22 23  1  0  0  0  0
 22 48  1  0  0  0  0
 22 49  1  0  0  0  0
 23 34  1  0  0  0  0
 23 24  1  0  0  0  0
 24 25  2  0  0  0  0
 24 26  1  0  0  0  0
 26 27  1  1  0  0  0
 26 32  1  0  0  0  0
 26 28  1  0  0  0  0
 28 29  1  0  0  0  0
 28 50  1  0  0  0  0
 28 51  1  0  0  0  0
 29 30  1  0  0  0  0
 29 52  1  0  0  0  0
 29 53  1  0  0  0  0
 30 31  1  0  0  0  0
 30 54  1  0  0  0  0
 30 55  1  0  0  0  0
 31 32  1  0  0  0  0
 31 56  1  0  0  0  0
 31 57  1  0  0  0  0
 32 33  1  6  0  0  0
 32 34  1  0  0  0  0
 34 35  2  0  0  0  0
M  END
$$$$
ZINC09662078
 OpenBabel01252620473D

 52 55  0  0  1  0  0  0  0  0999 V2000
   -0.1357    1.3771    0.1498 C   0  0  0  0  0  0  0  0  0  0  0  0
   -0.0849   -0.0506    0.1171 O   0  0  0  0  0  0  0  0  0  0  0  0
    0.5540   -0.5831   -1.0449 C   0  0  0  0  0  0  0  0  0  0  0  0
    0.5510   -2.1114   -0.9734 C   0  0  0  0  0  0  0  0  0  0  0  0
    1.2351   -2.6815   -2.2175 C   0  0  0  0  0  0  0  0  0  0  0  0
    1.2322   -4.1449   -2.1491 N   0  0  0  0  0  0  0  0  0  0  0  0
    2.2718   -4.9833   -1.5405 C   0  0  1  0  0  0  0  0  0  0  0  0
    2.3677   -4.7506   -0.4799 H   0  0  0  0  0  0  0  0  0  0  0  0
    1.8177   -6.4131   -1.7197 C   0  0  0  0  0  0  0  0  0  0  0  0
    0.6318   -6.3675   -2.3700 C   0  0  0  0  0  0  0  0  0  0  0  0
   -0.1105   -7.4427   -2.7233 O   0  5  0  0  0  0  0  0  0  0  0  0
    0.2732   -4.9581   -2.6278 C   0  0  0  0  0  0  0  0  0  0  0  0
   -0.7376   -4.5878   -3.1915 O   0  0  0  0  0  0  0  0  0  0  0  0
    2.5257   -7.6183   -1.2746 C   0  0  0  0  0  0  0  0  0  0  0  0
    2.9605   -8.4070   -2.0947 O   0  0  0  0  0  0  0  0  0  0  0  0
    2.7102   -7.8741    0.1602 C   0  0  0  0  0  0  0  0  0  0  0  0
    3.4319   -8.9009    0.6869 C   0  0  0  0  0  0  0  0  0  0  0  0
    3.3385   -8.7584    2.1384 C   0  0  0  0  0  0  0  0  0  0  0  0
    3.8486   -9.4797    3.2229 C   0  0  0  0  0  0  0  0  0  0  0  0
    3.5712   -9.0758    4.4977 C   0  0  0  0  0  0  0  0  0  0  0  0
    2.7861   -7.9539    4.7262 C   0  0  0  0  0  0  0  0  0  0  0  0
    2.2714   -7.2258    3.6696 C   0  0  0  0  0  0  0  0  0  0  0  0
    2.5421   -7.6204    2.3598 C   0  0  0  0  0  0  0  0  0  0  0  0
    2.1950   -7.1237    1.1557 O   0  0  0  0  0  0  0  0  0  0  0  0
    1.5035   -6.1291    3.9067 O   0  0  0  0  0  0  0  0  0  0  0  0
    1.2680   -5.7853    5.2736 C   0  0  0  0  0  0  0  0  0  0  0  0
    3.5884   -4.7660   -2.2406 C   0  0  0  0  0  0  0  0  0  0  0  0
    4.7533   -4.5945   -1.5081 C   0  0  0  0  0  0  0  0  0  0  0  0
    5.9415   -4.3976   -2.1946 C   0  0  0  0  0  0  0  0  0  0  0  0
    5.9257   -4.3789   -3.5766 C   0  0  0  0  0  0  0  0  0  0  0  0
    4.7987   -4.5451   -4.2406 N   0  0  0  0  0  0  0  0  0  0  0  0
    3.6511   -4.7410   -3.6208 C   0  0  0  0  0  0  0  0  0  0  0  0
    0.8780    1.7773    0.1282 H   0  0  0  0  0  0  0  0  0  0  0  0
   -0.6884    1.7409   -0.7164 H   0  0  0  0  0  0  0  0  0  0  0  0
   -0.6353    1.7022    1.0623 H   0  0  0  0  0  0  0  0  0  0  0  0
    0.0156   -0.2599   -1.9358 H   0  0  0  0  0  0  0  0  0  0  0  0
    1.5820   -0.2236   -1.0912 H   0  0  0  0  0  0  0  0  0  0  0  0
    1.0894   -2.4345   -0.0824 H   0  0  0  0  0  0  0  0  0  0  0  0
   -0.4770   -2.4709   -0.9271 H   0  0  0  0  0  0  0  0  0  0  0  0
    0.6966   -2.3584   -3.1085 H   0  0  0  0  0  0  0  0  0  0  0  0
    2.2630   -2.3220   -2.2638 H   0  0  0  0  0  0  0  0  0  0  0  0
    3.9653   -9.6661    0.1425 H   0  0  0  0  0  0  0  0  0  0  0  0
    4.4598  -10.3537    3.0526 H   0  0  0  0  0  0  0  0  0  0  0  0
    3.9652   -9.6336    5.3344 H   0  0  0  0  0  0  0  0  0  0  0  0
    2.5749   -7.6468    5.7398 H   0  0  0  0  0  0  0  0  0  0  0  0
    0.6430   -4.8935    5.3214 H   0  0  0  0  0  0  0  0  0  0  0  0
    0.7619   -6.6109    5.7739 H   0  0  0  0  0  0  0  0  0  0  0  0
    2.2194   -5.5891    5.7680 H   0  0  0  0  0  0  0  0  0  0  0  0
    4.7353   -4.6135   -0.4284 H   0  0  0  0  0  0  0  0  0  0  0  0
    6.8677   -4.2601   -1.6564 H   0  0  0  0  0  0  0  0  0  0  0  0
    6.8471   -4.2261   -4.1189 H   0  0  0  0  0  0  0  0  0  0  0  0
    2.7491   -4.8786   -4.1987 H   0  0  0  0  0  0  0  0  0  0  0  0
  1  2  1  0  0  0  0
  1 33  1  0  0  0  0
  1 34  1  0  0  0  0
  1 35  1  0  0  0  0
  2  3  1  0  0  0  0
  3  4  1  0  0  0  0
  3 36  1  0  0  0  0
  3 37  1  0  0  0  0
  4  5  1  0  0  0  0
  4 38  1  0  0  0  0
  4 39  1  0  0  0  0
  5 40  1  0  0  0  0
  5 41  1  0  0  0  0
  5  6  1  0  0  0  0
  6 12  1  0  0  0  0
  6  7  1  0  0  0  0
  7  9  1  0  0  0  0
  7 27  1  0  0  0  0
  7  8  1  1  0  0  0
  9 10  2  0  0  0  0
  9 14  1  0  0  0  0
 10 12  1  0  0  0  0
 10 11  1  0  0  0  0
 12 13  2  0  0  0  0
 14 15  2  0  0  0  0
 14 16  1  0  0  0  0
 16 24  1  0  0  0  0
 16 17  2  0  0  0  0
 17 18  1  0  0  0  0
 17 42  1  0  0  0  0
 18 23  2  0  0  0  0
 18 19  1  0  0  0  0
 19 20  2  0  0  0  0
 19 43  1  0  0  0  0
 20 21  1  0  0  0  0
 20 44  1  0  0  0  0
 21 22  2  0  0  0  0
 21 45  1  0  0  0  0
 22 23  1  0  0  0  0
 22 25  1  0  0  0  0
 23 24  1  0  0  0  0
 25 26  1  0  0  0  0
 26 46  1  0  0  0  0
 26 47  1  0  0  0  0
 26 48  1  0  0  0  0
 27 32  2  0  0  0  0
 27 28  1  0  0  0  0
 28 29  2  0  0  0  0
 28 49  1  0  0  0  0
 29 30  1  0  0  0  0
 29 50  1  0  0  0  0
 30 31  2  0  0  0  0
 30 51  1  0  0  0  0
 31 32  1  0  0  0  0
 32 52  1  0  0  0  0
M  CHG  1  11  -1
M  END
$$$$
ZINC58210129
 OpenBabel01252620473D

 39 40  0  0  0  0  0  0  0  0999 V2000
   -0.0178    1.4608    0.0101 C   0  0  0  0  0  0  0  0  0  0  0  0
    0.0021   -0.0041    0.0020 N   0  0  0  0  0  0  0  0  0  0  0  0
    0.0077   -0.7825   -1.0918 C   0  0  0  0  0  0  0  0  0  0  0  0
    0.0274   -2.0951   -0.6648 C   0  0  0  0  0  0  0  0  0  0  0  0
    0.0336   -2.0740    0.7480 C   0  0  0  0  0  0  0  0  0  0  0  0
    0.0245   -0.8277    1.1331 N   0  0  0  0  0  0  0  0  0  0  0  0
    0.0398   -3.2943   -1.5222 C   0  0  0  0  0  0  0  0  0  0  0  0
    0.0327   -3.1765   -2.7325 O   0  0  0  0  0  0  0  0  0  0  0  0
    0.0590   -4.5212   -0.9647 N   0  0  0  0  0  0  0  0  0  0  0  0
    0.0713   -5.7129   -1.8167 C   0  0  0  0  0  0  0  0  0  0  0  0
    0.0920   -6.9477   -0.9531 C   0  0  0  0  0  0  0  0  0  0  0  0
    1.2808   -7.6140   -0.7278 C   0  0  0  0  0  0  0  0  0  0  0  0
    1.3006   -8.7473    0.0640 C   0  0  0  0  0  0  0  0  0  0  0  0
    0.1311   -9.2174    0.6334 C   0  0  0  0  0  0  0  0  0  0  0  0
   -1.0607   -8.5559    0.4126 C   0  0  0  0  0  0  0  0  0  0  0  0
   -1.0833   -7.4138   -0.3782 C   0  0  0  0  0  0  0  0  0  0  0  0
   -2.2861   -6.7392   -0.5993 N   0  0  0  0  0  2  0  0  0  0  0  0
   -3.6863   -7.2966    0.0871 S   0  0  0  0  0  0  0  0  0  0  0  0
   -3.8972   -8.5717   -0.5036 O   0  0  0  0  0  0  0  0  0  0  0  0
   -3.4783   -7.1723    1.4872 O   0  0  0  0  0  0  0  0  0  0  0  0
   -4.9680   -6.1351   -0.4597 C   0  0  0  0  0  0  0  0  0  0  0  0
   -0.0052   -0.3102   -2.5229 C   0  0  0  0  0  0  0  0  0  0  0  0
    0.6376    0.9292   -2.6107 F   0  0  0  0  0  0  0  0  0  0  0  0
    0.6628   -1.2400   -3.3268 F   0  0  0  0  0  0  0  0  0  0  0  0
   -1.3281   -0.1815   -2.9595 F   0  0  0  0  0  0  0  0  0  0  0  0
    1.0048    1.8381    0.0023 H   0  0  0  0  0  0  0  0  0  0  0  0
   -0.5450    1.8219   -0.8730 H   0  0  0  0  0  0  0  0  0  0  0  0
   -0.5280    1.8123    0.9069 H   0  0  0  0  0  0  0  0  0  0  0  0
    0.0483   -2.9383    1.3955 H   0  0  0  0  0  0  0  0  0  0  0  0
    0.0647   -4.6152    0.0007 H   0  0  0  0  0  0  0  0  0  0  0  0
   -0.8215   -5.7217   -2.4420 H   0  0  0  0  0  0  0  0  0  0  0  0
    0.9583   -5.6976   -2.4501 H   0  0  0  0  0  0  0  0  0  0  0  0
    2.1958   -7.2496   -1.1709 H   0  0  0  0  0  0  0  0  0  0  0  0
    2.2313   -9.2668    0.2380 H   0  0  0  0  0  0  0  0  0  0  0  0
    0.1500  -10.1031    1.2511 H   0  0  0  0  0  0  0  0  0  0  0  0
   -1.9736   -8.9237    0.8572 H   0  0  0  0  0  0  0  0  0  0  0  0
   -5.0227   -6.1404   -1.5483 H   0  0  0  0  0  0  0  0  0  0  0  0
   -5.9308   -6.4353   -0.0461 H   0  0  0  0  0  0  0  0  0  0  0  0
   -4.7207   -5.1317   -0.1132 H   0  0  0  0  0  0  0  0  0  0  0  0
  1  2  1  0  0  0  0
  1 26  1  0  0  0  0
  1 27  1  0  0  0  0
  1 28  1  0  0  0  0
  2  6  1  0  0  0  0
  2  3  1  0  0  0  0
  3  4  2  0  0  0  0
  3 22  1  0  0  0  0
  4  5  1  0  0  0  0
  4  7  1  0  0  0  0
  5  6  2  0  0  0  0
  5 29  1  0  0  0  0
  7  8  2  0  0  0  0
  7  9  1  0  0  0  0
  9 10  1  0  0  0  0
  9 30  1  0  0  0  0
 10 11  1  0  0  0  0
 10 31  1  0  0  0  0
 10 32  1  0  0  0  0
 11 16  2  0  0  0  0
 11 12  1  0  0  0  0
 12 13  2  0  0  0  0
 12 33  1  0  0  0  0
 13 14  1  0  0  0  0
 13 34  1  0  0  0  0
 14 15  2  0  0  0  0
 14 35  1  0  0  0  0
 15 16  1  0  0  0  0
 15 36  1  0  0  0  0
 16 17  1  0  0  0  0
 17 18  1  0  0  0  0
 18 19  2  0  0  0  0
 18 20  2  0  0  0  0
 18 21  1  0  0  0  0
 21 37  1  0  0  0  0
 21 38  1  0  0  0  0
 21 39  1  0  0  0  0
 22 23  1  0  0  0  0
 22 24  1  0  0  0  0
 22 25  1  0  0  0  0
M  END
$$$$
ZINC39667987
 OpenBabel01252620473D

 51 53  0  0  1  0  0  0  0  0999 V2000
    0.2874    1.5944    0.0912 C   0  0  0  0  0  0  0  0  0  0  0  0
    0.1483    0.0713    0.0501 C   0  0  1  0  0  0  0  0  0  0  0  0
   -0.9035   -0.2121    0.0895 H   0  0  0  0  0  0  0  0  0  0  0  0
    0.7917   -0.4791   -1.2020 C   0  0  0  0  0  0  0  0  0  0  0  0
    1.9845   -0.9917   -0.8895 C   0  0  0  0  0  0  0  0  0  0  0  0
    2.2218   -0.8199    0.5933 C   0  0  2  0  0  0  0  0  0  0  0  0
    2.6361   -1.7345    1.0174 H   0  0  0  0  0  0  0  0  0  0  0  0
    0.8870   -0.5417    1.1787 N   0  0  1  0  0  0  0  0  0  0  0  0
    0.9899    0.3909    2.3090 C   0  0  0  0  0  0  0  0  0  0  0  0
    0.8539   -0.1892    3.7182 C   0  0  0  0  0  0  0  0  0  0  0  0
   -0.2770    0.6539    3.1255 C   0  0  0  0  0  0  0  0  0  0  0  0
    3.1680    0.3558    0.8452 C   0  0  0  0  0  0  0  0  0  0  0  0
    2.9117   -1.6193   -1.8306 C   0  0  0  0  0  0  0  0  0  0  0  0
    2.6188   -1.7052   -3.0048 O   0  0  0  0  0  0  0  0  0  0  0  0
    4.2310   -2.1592   -1.3417 C   0  0  0  0  0  0  0  0  0  0  0  0
    5.1480   -2.8694   -2.7365 S   0  0  0  0  0  0  0  0  0  0  0  0
    6.6454   -3.4493   -2.0112 C   0  0  0  0  0  0  0  0  0  0  0  0
    7.5833   -4.0458   -2.7981 N   0  0  0  0  0  0  0  0  0  0  0  0
    8.7332   -4.4921   -2.2490 C   0  0  0  0  0  0  0  0  0  0  0  0
    9.5844   -5.0285   -2.9391 O   0  0  0  0  0  0  0  0  0  0  0  0
    8.9312   -4.3265   -0.8670 C   0  0  0  0  0  0  0  0  0  0  0  0
    7.9558   -3.7211   -0.1282 C   0  0  0  0  0  0  0  0  0  0  0  0
    6.8414   -3.2934   -0.7160 N   0  0  0  0  0  0  0  0  0  0  0  0
    8.1439   -3.5323    1.3550 C   0  0  0  0  0  0  0  0  0  0  0  0
   10.1993   -4.8098   -0.2118 C   0  0  0  0  0  0  0  0  0  0  0  0
   10.0588   -6.2923    0.1394 C   0  0  0  0  0  0  0  0  0  0  0  0
   11.3269   -6.7757    0.7947 C   0  0  0  0  0  0  0  0  0  0  0  0
   12.2568   -6.0058    0.9649 O   0  0  0  0  0  0  0  0  0  0  0  0
   11.4229   -7.9366    1.1545 O   0  0  0  0  0  1  0  0  0  0  0  0
    1.3228    1.8702   -0.1085 H   0  0  0  0  0  0  0  0  0  0  0  0
   -0.3594    2.0388   -0.6653 H   0  0  0  0  0  0  0  0  0  0  0  0
   -0.0022    1.9592    1.0767 H   0  0  0  0  0  0  0  0  0  0  0  0
    0.3565   -0.4612   -2.1903 H   0  0  0  0  0  0  0  0  0  0  0  0
    1.6814    1.2222    2.1711 H   0  0  0  0  0  0  0  0  0  0  0  0
    0.6880   -1.2629    3.8066 H   0  0  0  0  0  0  0  0  0  0  0  0
    1.4560    0.2603    4.5078 H   0  0  0  0  0  0  0  0  0  0  0  0
   -0.4188    1.6580    3.5251 H   0  0  0  0  0  0  0  0  0  0  0  0
   -1.1868    0.1348    2.8240 H   0  0  0  0  0  0  0  0  0  0  0  0
    2.7132    1.2742    0.4740 H   0  0  0  0  0  0  0  0  0  0  0  0
    3.3544    0.4493    1.9151 H   0  0  0  0  0  0  0  0  0  0  0  0
    4.1104    0.1814    0.3261 H   0  0  0  0  0  0  0  0  0  0  0  0
    4.8126   -1.3508   -0.8984 H   0  0  0  0  0  0  0  0  0  0  0  0
    4.0527   -2.9312   -0.5932 H   0  0  0  0  0  0  0  0  0  0  0  0
    8.6265   -2.5727    1.5408 H   0  0  0  0  0  0  0  0  0  0  0  0
    7.1730   -3.5526    1.8499 H   0  0  0  0  0  0  0  0  0  0  0  0
    8.7685   -4.3350    1.7471 H   0  0  0  0  0  0  0  0  0  0  0  0
   11.0361   -4.6766   -0.8974 H   0  0  0  0  0  0  0  0  0  0  0  0
   10.3797   -4.2365    0.6975 H   0  0  0  0  0  0  0  0  0  0  0  0
    9.2219   -6.4255    0.8251 H   0  0  0  0  0  0  0  0  0  0  0  0
    9.8783   -6.8656   -0.7699 H   0  0  0  0  0  0  0  0  0  0  0  0
    7.4256   -4.1499   -3.7495 H   0  0  0  0  0  0  0  0  0  0  0  0
  1  2  1  0  0  0  0
  1 30  1  0  0  0  0
  1 31  1  0  0  0  0
  1 32  1  0  0  0  0
  2  3  1  1  0  0  0
  2  8  1  0  0  0  0
  2  4  1  0  0  0  0
  4  5  2  0  0  0  0
  4 33  1  0  0  0  0
  5  6  1  0  0  0  0
  5 13  1  0  0  0  0
  6  7  1  1  0  0  0
  6  8  1  0  0  0  0
  6 12  1  0  0  0  0
  8  9  1  1  0  0  0
  9 11  1  0  0  0  0
  9 10  1  0  0  0  0
  9 34  1  0  0  0  0
 10 11  1  0  0  0  0
 10 35  1  0  0  0  0
 10 36  1  0  0  0  0
 11 37  1  0  0  0  0
 11 38  1  0  0  0  0
 12 39  1  0  0  0  0
 12 40  1  0  0  0  0
 12 41  1  0  0  0  0
 13 14  2  0  0  0  0
 13 15  1  0  0  0  0
 15 16  1  0  0  0  0
 15 42  1  0  0  0  0
 15 43  1  0  0  0  0
 16 17  1  0  0  0  0
 17 23  2  0  0  0  0
 17 18  1  0  0  0  0
 18 19  1  0  0  0  0
 18 51  1  0  0  0  0
 19 20  2  0  0  0  0
 19 21  1  0  0  0  0
 21 22  2  0  0  0  0
 21 25  1  0  0  0  0
 22 23  1  0  0  0  0
 22 24  1  0  0  0  0
 24 44  1  0  0  0  0
 24 45  1  0  0  0  0
 24 46  1  0  0  0  0
 25 26  1  0  0  0  0
 25 47  1  0  0  0  0
 25 48  1  0  0  0  0
 26 27  1  0  0  0  0
 26 49  1  0  0  0  0
 26 50  1  0  0  0  0
 27 28  2  0  0  0  0
 27 29  1  0  0  0  0
M  END
$$$$
ZINC57121464
 OpenBabel01252620473D

 49 50  0  0  1  0  0  0  0  0999 V2000
   -0.0187    1.5258    0.0104 C   0  0  0  0  0  0  0  0  0  0  0  0
    0.0021   -0.0041    0.0020 C   0  0  0  0  0  0  0  0  0  0  0  0
    0.7421   -0.5109    1.2415 C   0  0  2  0  0  0  0  0  0  0  0  0
    1.7350   -0.0630    1.2804 H   0  0  0  0  0  0  0  0  0  0  0  0
    0.8719   -2.0337    1.1708 C   0  0  0  0  0  0  0  0  0  0  0  0
   -0.0083   -0.1401    2.4439 N   0  0  0  0  0  0  0  0  0  0  0  0
    0.6303   -0.0111    3.6237 C   0  0  0  0  0  0  0  0  0  0  0  0
    1.8293   -0.2025    3.6902 O   0  0  0  0  0  0  0  0  0  0  0  0
   -0.1253    0.3623    4.8345 C   0  0  0  0  0  0  0  0  0  0  0  0
   -1.5047    0.5770    4.7608 C   0  0  0  0  0  0  0  0  0  0  0  0
   -2.2068    0.9248    5.8921 C   0  0  0  0  0  0  0  0  0  0  0  0
   -1.5448    1.0633    7.1089 C   0  0  0  0  0  0  0  0  0  0  0  0
   -0.1710    0.8506    7.1855 C   0  0  0  0  0  0  0  0  0  0  0  0
    0.5356    0.4965    6.0590 C   0  0  0  0  0  0  0  0  0  0  0  0
   -2.2569    1.4152    8.2501 N   0  0  0  0  0  2  0  0  0  0  0  0
   -1.4712    1.5804    9.6984 S   0  0  0  0  0  0  0  0  0  0  0  0
   -1.0024    0.2875   10.0559 O   0  0  0  0  0  0  0  0  0  0  0  0
   -0.6012    2.6958    9.5635 O   0  0  0  0  0  0  0  0  0  0  0  0
   -2.6806    2.0273   10.8993 C   0  0  0  0  0  0  0  0  0  0  0  0
   -2.9591    1.2020   11.8986 C   0  0  0  0  0  0  0  0  0  0  0  0
   -3.9737    1.5769   12.9060 C   0  0  0  0  0  0  0  0  0  0  0  0
   -4.6442    2.7964   12.8048 C   0  0  0  0  0  0  0  0  0  0  0  0
   -5.5902    3.1405   13.7484 C   0  0  0  0  0  0  0  0  0  0  0  0
   -5.8740    2.2796   14.7935 C   0  0  0  0  0  0  0  0  0  0  0  0
   -5.2124    1.0692   14.8998 C   0  0  0  0  0  0  0  0  0  0  0  0
   -4.2691    0.7104   13.9590 C   0  0  0  0  0  0  0  0  0  0  0  0
   -6.9081    2.6621   15.8209 C   0  0  0  0  0  0  0  0  0  0  0  0
    1.0039    1.9031    0.0027 H   0  0  0  0  0  0  0  0  0  0  0  0
   -0.5459    1.8868   -0.8726 H   0  0  0  0  0  0  0  0  0  0  0  0
   -0.5289    1.8773    0.9072 H   0  0  0  0  0  0  0  0  0  0  0  0
   -1.0205   -0.3814    0.0098 H   0  0  0  0  0  0  0  0  0  0  0  0
    0.5123   -0.3556   -0.8948 H   0  0  0  0  0  0  0  0  0  0  0  0
    1.4302   -2.3096    0.2763 H   0  0  0  0  0  0  0  0  0  0  0  0
    1.3991   -2.3948    2.0539 H   0  0  0  0  0  0  0  0  0  0  0  0
   -0.1210   -2.4817    1.1320 H   0  0  0  0  0  0  0  0  0  0  0  0
   -0.9647    0.0126    2.3909 H   0  0  0  0  0  0  0  0  0  0  0  0
   -2.0187    0.4705    3.8170 H   0  0  0  0  0  0  0  0  0  0  0  0
   -3.2725    1.0908    5.8358 H   0  0  0  0  0  0  0  0  0  0  0  0
    0.3398    0.9591    8.1308 H   0  0  0  0  0  0  0  0  0  0  0  0
    1.6005    0.3270    6.1199 H   0  0  0  0  0  0  0  0  0  0  0  0
   -3.1951    2.9737   10.8212 H   0  0  0  0  0  0  0  0  0  0  0  0
   -2.4447    0.2556   11.9766 H   0  0  0  0  0  0  0  0  0  0  0  0
   -4.4230    3.4696   11.9898 H   0  0  0  0  0  0  0  0  0  0  0  0
   -6.1099    4.0841   13.6713 H   0  0  0  0  0  0  0  0  0  0  0  0
   -5.4381    0.4019   15.7184 H   0  0  0  0  0  0  0  0  0  0  0  0
   -3.7570   -0.2370   14.0401 H   0  0  0  0  0  0  0  0  0  0  0  0
   -7.8873    2.3059   15.5009 H   0  0  0  0  0  0  0  0  0  0  0  0
   -6.6524    2.2103   16.7793 H   0  0  0  0  0  0  0  0  0  0  0  0
   -6.9324    3.7468   15.9255 H   0  0  0  0  0  0  0  0  0  0  0  0
  1  2  1  0  0  0  0
  1 28  1  0  0  0  0
  1 29  1  0  0  0  0
  1 30  1  0  0  0  0
  2  3  1  0  0  0  0
  2 31  1  0  0  0  0
  2 32  1  0  0  0  0
  3  4  1  1  0  0  0
  3  5  1  0  0  0  0
  3  6  1  0  0  0  0
  5 33  1  0  0  0  0
  5 34  1  0  0  0  0
  5 35  1  0  0  0  0
  6  7  1  0  0  0  0
  6 36  1  0  0  0  0
  7  8  2  0  0  0  0
  7  9  1  0  0  0  0
  9 14  2  0  0  0  0
  9 10  1  0  0  0  0
 10 11  2  0  0  0  0
 10 37  1  0  0  0  0
 11 12  1  0  0  0  0
 11 38  1  0  0  0  0
 12 13  2  0  0  0  0
 12 15  1  0  0  0  0
 13 14  1  0  0  0  0
 13 39  1  0  0  0  0
 14 40  1  0  0  0  0
 15 16  1  0  0  0  0
 16 17  2  0  0  0  0
 16 18  2  0  0  0  0
 16 19  1  0  0  0  0
 19 20  2  0  0  0  0
 19 41  1  0  0  0  0
 20 21  1  0  0  0  0
 20 42  1  0  0  0  0
 21 26  2  0  0  0  0
 21 22  1  0  0  0  0
 22 23  2  0  0  0  0
 22 43  1  0  0  0  0
 23 24  1  0  0  0  0
 23 44  1  0  0  0  0
 24 25  2  0  0  0  0
 24 27  1  0  0  0  0
 25 26  1  0  0  0  0
 25 45  1  0  0  0  0
 26 46  1  0  0  0  0
 27 47  1  0  0  0  0
 27 48  1  0  0  0  0
 27 49  1  0  0  0  0
M  END
$$$$
ZINC41606043
 OpenBabel01252620473D

 35 36  0  0  1  0  0  0  0  0999 V2000
   -0.6110    1.0034   -0.0353 C   0  0  0  0  0  0  0  0  0  0  0  0
   -0.5136   -0.5211   -0.1204 C   0  0  0  0  0  0  0  0  0  0  0  0
    0.2875   -0.9062   -1.3374 C   0  0  0  0  0  0  0  0  0  0  0  0
    1.5839   -1.1044   -1.4681 N   0  0  0  0  0  0  0  0  0  0  0  0
    2.0456   -1.4263   -2.5994 N   0  0  0  0  0  0  0  0  0  0  0  0
    1.2677   -1.5701   -3.6542 C   0  0  0  0  0  0  0  0  0  0  0  0
   -0.2530   -1.2309   -3.0099 S   0  0  0  0  0  0  0  0  0  0  0  0
    1.6110   -1.9164   -4.9566 N   0  0  0  0  0  0  0  0  0  0  0  0
    2.8989   -2.1569   -5.2727 C   0  0  0  0  0  0  0  0  0  0  0  0
    3.7585   -2.0713   -4.4213 O   0  0  0  0  0  0  0  0  0  0  0  0
    3.2710   -2.5322   -6.6840 C   0  0  1  0  0  0  0  0  0  0  0  0
    2.4778   -3.1399   -7.1195 H   0  0  0  0  0  0  0  0  0  0  0  0
    3.4566   -1.2625   -7.5172 C   0  0  0  0  0  0  0  0  0  0  0  0
    3.6945   -1.6427   -8.9800 C   0  0  0  0  0  0  0  0  0  0  0  0
    4.8189   -3.4779   -6.6701 S   0  0  0  0  0  0  0  0  0  0  0  0
    4.3841   -4.9957   -5.8880 C   0  0  0  0  0  0  0  0  0  0  0  0
    5.3352   -6.0476   -5.7776 C   0  0  0  0  0  0  0  0  0  0  0  0
    6.4647   -5.9224   -6.2190 O   0  0  0  0  0  0  0  0  0  0  0  0
    4.9477   -7.1915   -5.1671 N   0  0  0  0  0  0  0  0  0  0  0  0
    5.5637   -7.9344   -5.0695 H   0  0  0  0  0  0  0  0  0  0  0  0
    3.6737   -7.2768   -4.6920 C   0  0  0  0  0  0  0  0  0  0  0  0
    3.2635   -8.4082   -4.0789 O   0  5  0  0  0  0  0  0  0  0  0  0
    2.8395   -6.2694   -4.8238 N   0  0  0  0  0  0  0  0  0  0  0  0
    3.1771   -5.1688   -5.3938 N   0  0  0  0  0  0  0  0  0  0  0  0
    0.3901    1.4278    0.0394 H   0  0  0  0  0  0  0  0  0  0  0  0
   -1.1022    1.3865   -0.9298 H   0  0  0  0  0  0  0  0  0  0  0  0
   -1.1904    1.2819    0.8449 H   0  0  0  0  0  0  0  0  0  0  0  0
   -0.0224   -0.9043    0.7740 H   0  0  0  0  0  0  0  0  0  0  0  0
   -1.5148   -0.9456   -0.1952 H   0  0  0  0  0  0  0  0  0  0  0  0
    0.9236   -1.9848   -5.6375 H   0  0  0  0  0  0  0  0  0  0  0  0
    2.5612   -0.6453   -7.4433 H   0  0  0  0  0  0  0  0  0  0  0  0
    4.3146   -0.7042   -7.1427 H   0  0  0  0  0  0  0  0  0  0  0  0
    3.9070   -0.7440   -9.5591 H   0  0  0  0  0  0  0  0  0  0  0  0
    4.5418   -2.3254   -9.0448 H   0  0  0  0  0  0  0  0  0  0  0  0
    2.8044   -2.1295   -9.3783 H   0  0  0  0  0  0  0  0  0  0  0  0
  1  2  1  0  0  0  0
  1 25  1  0  0  0  0
  1 26  1  0  0  0  0
  1 27  1  0  0  0  0
  2  3  1  0  0  0  0
  2 28  1  0  0  0  0
  2 29  1  0  0  0  0
  3  7  1  0  0  0  0
  3  4  2  0  0  0  0
  4  5  1  0  0  0  0
  5  6  2  0  0  0  0
  6  7  1  0  0  0  0
  6  8  1  0  0  0  0
  8  9  1  0  0  0  0
  8 30  1  0  0  0  0
  9 10  2  0  0  0  0
  9 11  1  0  0  0  0
 11 12  1  6  0  0  0
 11 13  1  0  0  0  0
 11 15  1  0  0  0  0
 13 14  1  0  0  0  0
 13 31  1  0  0  0  0
 13 32  1  0  0  0  0
 14 33  1  0  0  0  0
 14 34  1  0  0  0  0
 14 35  1  0  0  0  0
 15 16  1  0  0  0  0
 16 24  2  0  0  0  0
 16 17  1  0  0  0  0
 17 18  2  0  0  0  0
 17 19  1  0  0  0  0
 19 20  1  0  0  0  0
 19 21  1  0  0  0  0
 21 22  1  0  0  0  0
 21 23  2  0  0  0  0
 23 24  1  0  0  0  0
M  CHG  1  22  -1
M  END
$$$$
ZINC40054486
 OpenBabel01252620473D

 51 53  0  0  1  0  0  0  0  0999 V2000
    2.2957   -2.0244    1.6839 C   0  0  0  0  0  0  0  0  0  0  0  0
    2.0691   -2.8741    0.7129 C   0  0  0  0  0  0  0  0  0  0  0  0
    0.8953   -3.8157    0.7943 C   0  0  0  0  0  0  0  0  0  0  0  0
    0.2143   -3.8378   -0.4618 O   0  0  0  0  0  0  0  0  0  0  0  0
   -0.8760   -4.6433   -0.5585 C   0  0  0  0  0  0  0  0  0  0  0  0
   -1.2846   -5.3928    0.5372 C   0  0  0  0  0  0  0  0  0  0  0  0
   -2.3929   -6.2145    0.4449 C   0  0  0  0  0  0  0  0  0  0  0  0
   -3.1007   -6.2954   -0.7368 C   0  0  0  0  0  0  0  0  0  0  0  0
   -2.6979   -5.5453   -1.8437 C   0  0  0  0  0  0  0  0  0  0  0  0
   -1.5821   -4.7120   -1.7470 C   0  0  0  0  0  0  0  0  0  0  0  0
   -3.4538   -5.6293   -3.1118 C   0  0  0  0  0  0  0  0  0  0  0  0
   -3.1439   -4.9229   -4.0527 O   0  0  0  0  0  0  0  0  0  0  0  0
   -4.5765   -6.5636   -3.2354 C   0  0  0  0  0  0  0  0  0  0  0  0
   -4.6318   -7.6588   -4.0291 C   0  0  0  0  0  0  0  0  0  0  0  0
   -5.9414   -8.3212   -3.8516 C   0  0  0  0  0  0  0  0  0  0  0  0
   -6.2957   -9.3310   -4.4268 O   0  0  0  0  0  0  0  0  0  0  0  0
   -6.6828   -7.6407   -2.9587 N   0  0  0  0  0  0  0  0  0  0  0  0
   -5.8925   -6.4937   -2.4965 C   0  0  2  0  0  0  0  0  0  0  0  0
   -5.7230   -6.5612   -1.4219 H   0  0  0  0  0  0  0  0  0  0  0  0
   -6.6060   -5.2087   -2.8295 C   0  0  0  0  0  0  0  0  0  0  0  0
   -7.3573   -5.1150   -3.9861 C   0  0  0  0  0  0  0  0  0  0  0  0
   -8.0118   -3.9364   -4.2915 C   0  0  0  0  0  0  0  0  0  0  0  0
   -7.9154   -2.8516   -3.4402 C   0  0  0  0  0  0  0  0  0  0  0  0
   -7.1648   -2.9456   -2.2832 C   0  0  0  0  0  0  0  0  0  0  0  0
   -6.5138   -4.1256   -1.9756 C   0  0  0  0  0  0  0  0  0  0  0  0
   -8.0376   -7.9865   -2.5212 C   0  0  0  0  0  0  0  0  0  0  0  0
   -7.9602   -8.9077   -1.3021 C   0  0  0  0  0  0  0  0  0  0  0  0
   -9.3750   -9.2689   -0.8452 C   0  0  0  0  0  0  0  0  0  0  0  0
   -9.3028  -10.1293    0.2935 O   0  0  0  0  0  0  0  0  0  0  0  0
   -3.6458   -8.0797   -4.8541 O   0  5  0  0  0  0  0  0  0  0  0  0
    3.1369   -1.3496    1.6255 H   0  0  0  0  0  0  0  0  0  0  0  0
    1.6388   -1.9957    2.5407 H   0  0  0  0  0  0  0  0  0  0  0  0
    2.7234   -2.8997   -0.1460 H   0  0  0  0  0  0  0  0  0  0  0  0
    1.2498   -4.8184    1.0331 H   0  0  0  0  0  0  0  0  0  0  0  0
    0.2113   -3.4773    1.5725 H   0  0  0  0  0  0  0  0  0  0  0  0
   -0.7344   -5.3338    1.4646 H   0  0  0  0  0  0  0  0  0  0  0  0
   -2.7054   -6.7950    1.3003 H   0  0  0  0  0  0  0  0  0  0  0  0
   -3.9655   -6.9387   -0.8057 H   0  0  0  0  0  0  0  0  0  0  0  0
   -1.2680   -4.1264   -2.5984 H   0  0  0  0  0  0  0  0  0  0  0  0
   -7.4327   -5.9626   -4.6512 H   0  0  0  0  0  0  0  0  0  0  0  0
   -8.5983   -3.8630   -5.1955 H   0  0  0  0  0  0  0  0  0  0  0  0
   -8.4261   -1.9305   -3.6792 H   0  0  0  0  0  0  0  0  0  0  0  0
   -7.0891   -2.0979   -1.6182 H   0  0  0  0  0  0  0  0  0  0  0  0
   -5.9304   -4.2002   -1.0698 H   0  0  0  0  0  0  0  0  0  0  0  0
   -8.5769   -7.0772   -2.2559 H   0  0  0  0  0  0  0  0  0  0  0  0
   -8.5613   -8.4968   -3.3296 H   0  0  0  0  0  0  0  0  0  0  0  0
   -7.4209   -9.8170   -1.5674 H   0  0  0  0  0  0  0  0  0  0  0  0
   -7.4365   -8.3974   -0.4937 H   0  0  0  0  0  0  0  0  0  0  0  0
   -9.9144   -8.3596   -0.5798 H   0  0  0  0  0  0  0  0  0  0  0  0
   -9.8987   -9.7792   -1.6535 H   0  0  0  0  0  0  0  0  0  0  0  0
  -10.1652  -10.3992    0.6378 H   0  0  0  0  0  0  0  0  0  0  0  0
  1  2  2  0  0  0  0
  1 31  1  0  0  0  0
  1 32  1  0  0  0  0
  2  3  1  0  0  0  0
  2 33  1  0  0  0  0
  3  4  1  0  0  0  0
  3 34  1  0  0  0  0
  3 35  1  0  0  0  0
  4  5  1  0  0  0  0
  5 10  2  0  0  0  0
  5  6  1  0  0  0  0
  6  7  2  0  0  0  0
  6 36  1  0  0  0  0
  7  8  1  0  0  0  0
  7 37  1  0  0  0  0
  8  9  2  0  0  0  0
  8 38  1  0  0  0  0
  9 10  1  0  0  0  0
  9 11  1  0  0  0  0
 10 39  1  0  0  0  0
 11 12  2  0  0  0  0
 11 13  1  0  0  0  0
 13 18  1  0  0  0  0
 13 14  2  0  0  0  0
 14 15  1  0  0  0  0
 14 30  1  0  0  0  0
 15 16  2  0  0  0  0
 15 17  1  0  0  0  0
 17 18  1  0  0  0  0
 17 26  1  0  0  0  0
 18 19  1  1  0  0  0
 18 20  1  0  0  0  0
 20 25  2  0  0  0  0
 20 21  1  0  0  0  0
 21 22  2  0  0  0  0
 21 40  1  0  0  0  0
 22 23  1  0  0  0  0
 22 41  1  0  0  0  0
 23 24  2  0  0  0  0
 23 42  1  0  0  0  0
 24 25  1  0  0  0  0
 24 43  1  0  0  0  0
 25 44  1  0  0  0  0
 26 27  1  0  0  0  0
 26 45  1  0  0  0  0
 26 46  1  0  0  0  0
 27 28  1  0  0  0  0
 27 47  1  0  0  0  0
 27 48  1  0  0  0  0
 28 29  1  0  0  0  0
 28 49  1  0  0  0  0
 28 50  1  0  0  0  0
 29 51  1  0  0  0  0
M  CHG  1  30  -1
M  END
$$$$
ZINC13352423
 OpenBabel01252620473D

 45 47  0  0  0  0  0  0  0  0999 V2000
   -7.9069    5.9444    7.2876 C   0  0  0  0  0  0  0  0  0  0  0  0
   -7.6065    6.0359    8.6325 C   0  0  0  0  0  0  0  0  0  0  0  0
   -6.5057    6.7657    9.0489 C   0  0  0  0  0  0  0  0  0  0  0  0
   -5.7008    7.4002    8.1177 C   0  0  0  0  0  0  0  0  0  0  0  0
   -5.9946    7.3062    6.7715 C   0  0  0  0  0  0  0  0  0  0  0  0
   -7.0978    6.5751    6.3521 C   0  0  0  0  0  0  0  0  0  0  0  0
   -7.3977    6.4785    4.9861 N   0  0  0  0  0  0  0  0  0  0  0  0
   -8.5249    6.9853    4.3454 C   0  0  0  0  0  0  0  0  0  0  0  0
   -8.3957    6.6480    3.0141 C   0  0  0  0  0  0  0  0  0  0  0  0
   -7.2534    5.9821    2.8670 N   0  0  0  0  0  0  0  0  0  0  0  0
   -6.6426    5.8735    4.0305 C   0  0  0  0  0  0  0  0  0  0  0  0
   -5.0998    5.0676    4.3044 S   0  0  0  0  0  0  0  0  0  0  0  0
   -4.7258    4.5237    2.6191 C   0  0  0  0  0  0  0  0  0  0  0  0
   -3.4105    3.7881    2.6089 C   0  0  0  0  0  0  0  0  0  0  0  0
   -2.7873    3.6457    3.6395 O   0  0  0  0  0  0  0  0  0  0  0  0
   -2.9267    3.2886    1.4544 N   0  0  0  0  0  0  0  0  0  0  0  0
   -1.6481    2.5736    1.4444 C   0  0  0  0  0  0  0  0  0  0  0  0
   -1.3319    2.1137    0.0198 C   0  0  0  0  0  0  0  0  0  0  0  0
   -0.0167    1.3782    0.0096 C   0  0  0  0  0  0  0  0  0  0  0  0
    0.0021   -0.0041    0.0020 C   0  0  0  0  0  0  0  0  0  0  0  0
    1.2078   -0.6793   -0.0131 C   0  0  0  0  0  0  0  0  0  0  0  0
    2.3972    0.0281   -0.0206 C   0  0  0  0  0  0  0  0  0  0  0  0
    2.3790    1.4110   -0.0130 C   0  0  0  0  0  0  0  0  0  0  0  0
    1.1717    2.0864    0.0021 C   0  0  0  0  0  0  0  0  0  0  0  0
    1.1479    3.8222    0.0122 Cl  0  0  0  0  0  0  0  0  0  0  0  0
    3.9117   -0.8202   -0.0390 Cl  0  0  0  0  0  0  0  0  0  0  0  0
   -9.5935    7.6990    4.9421 C   0  0  0  0  0  0  0  0  0  0  0  0
  -10.5254    8.0821    4.2597 O   0  0  0  0  0  0  0  0  0  0  0  0
   -6.2164    6.8584   10.3654 F   0  0  0  0  0  0  0  0  0  0  0  0
   -8.7680    5.3788    6.9635 H   0  0  0  0  0  0  0  0  0  0  0  0
   -8.2333    5.5421    9.3603 H   0  0  0  0  0  0  0  0  0  0  0  0
   -4.8429    7.9692    8.4444 H   0  0  0  0  0  0  0  0  0  0  0  0
   -5.3669    7.8015    6.0456 H   0  0  0  0  0  0  0  0  0  0  0  0
   -9.0987    6.8833    2.2288 H   0  0  0  0  0  0  0  0  0  0  0  0
   -4.6617    5.3917    1.9629 H   0  0  0  0  0  0  0  0  0  0  0  0
   -5.5159    3.8601    2.2677 H   0  0  0  0  0  0  0  0  0  0  0  0
   -3.4251    3.4025    0.6300 H   0  0  0  0  0  0  0  0  0  0  0  0
   -1.7121    1.7055    2.1006 H   0  0  0  0  0  0  0  0  0  0  0  0
   -0.8580    3.2371    1.7958 H   0  0  0  0  0  0  0  0  0  0  0  0
   -1.2679    2.9817   -0.6363 H   0  0  0  0  0  0  0  0  0  0  0  0
   -2.1221    1.4501   -0.3315 H   0  0  0  0  0  0  0  0  0  0  0  0
   -0.9259   -0.5565    0.0075 H   0  0  0  0  0  0  0  0  0  0  0  0
    1.2218   -1.7591   -0.0194 H   0  0  0  0  0  0  0  0  0  0  0  0
    3.3070    1.9635   -0.0193 H   0  0  0  0  0  0  0  0  0  0  0  0
   -9.5780    7.9539    6.2673 O   0  0  0  0  0  1  0  0  0  0  0  0
  1  6  2  0  0  0  0
  1  2  1  0  0  0  0
  1 30  1  0  0  0  0
  2  3  2  0  0  0  0
  2 31  1  0  0  0  0
  3  4  1  0  0  0  0
  3 29  1  0  0  0  0
  4  5  2  0  0  0  0
  4 32  1  0  0  0  0
  5  6  1  0  0  0  0
  5 33  1  0  0  0  0
  6  7  1  0  0  0  0
  7 11  1  0  0  0  0
  7  8  1  0  0  0  0
  8  9  2  0  0  0  0
  8 27  1  0  0  0  0
  9 10  1  0  0  0  0
  9 34  1  0  0  0  0
 10 11  2  0  0  0  0
 11 12  1  0  0  0  0
 12 13  1  0  0  0  0
 13 14  1  0  0  0  0
 13 35  1  0  0  0  0
 13 36  1  0  0  0  0
 14 15  2  0  0  0  0
 14 16  1  0  0  0  0
 16 17  1  0  0  0  0
 16 37  1  0  0  0  0
 17 18  1  0  0  0  0
 17 38  1  0  0  0  0
 17 39  1  0  0  0  0
 18 19  1  0  0  0  0
 18 40  1  0  0  0  0
 18 41  1  0  0  0  0
 19 24  2  0  0  0  0
 19 20  1  0  0  0  0
 20 21  2  0  0  0  0
 20 42  1  0  0  0  0
 21 22  1  0  0  0  0
 21 43  1  0  0  0  0
 22 23  2  0  0  0  0
 22 26  1  0  0  0  0
 23 24  1  0  0  0  0
 23 44  1  0  0  0  0
 24 25  1  0  0  0  0
 27 28  2  0  0  0  0
 27 45  1  0  0  0  0
M  END
$$$$
ZINC39126911
 OpenBabel01252620473D

 42 44  0  0  0  0  0  0  0  0999 V2000
    0.5172    1.4602    0.0232 C   0  0  0  0  0  0  0  0  0  0  0  0
    0.2571   -0.0241    0.0081 C   0  0  0  0  0  0  0  0  0  0  0  0
    0.1896   -0.7836   -1.0465 N   0  0  0  0  0  0  0  0  0  0  0  0
   -0.0655   -2.1046   -0.6732 N   0  0  0  0  0  0  0  0  0  0  0  0
   -0.1638   -2.1879    0.6680 C   0  0  0  0  0  0  0  0  0  0  0  0
   -0.3815   -3.1966    1.3196 O   0  0  0  0  0  0  0  0  0  0  0  0
    0.0400   -0.8788    1.1788 C   0  0  0  0  0  0  0  0  0  0  0  0
    0.0325   -0.4858    2.5213 C   0  0  0  0  0  0  0  0  0  0  0  0
   -0.0502   -1.4464    3.5286 C   0  0  0  0  0  0  0  0  0  0  0  0
   -0.1514   -1.1934    4.8945 C   0  0  0  0  0  0  0  0  0  0  0  0
   -0.2077   -2.4295    5.5278 C   0  0  0  0  0  0  0  0  0  0  0  0
   -0.1401   -3.3950    4.5426 C   0  0  0  0  0  0  0  0  0  0  0  0
   -0.0519   -2.7878    3.3498 O   0  0  0  0  0  0  0  0  0  0  0  0
   -0.1652   -4.7539    4.7497 N   0  0  0  0  0  0  0  0  0  0  0  0
   -0.2716   -5.2855    6.1107 C   0  0  0  0  0  0  0  0  0  0  0  0
   -0.0856   -5.6702    3.6095 C   0  0  0  0  0  0  0  0  0  0  0  0
   -0.1999   -3.1808   -1.5593 C   0  0  0  0  0  0  0  0  0  0  0  0
   -0.4603   -4.4550   -1.0722 C   0  0  0  0  0  0  0  0  0  0  0  0
   -0.5927   -5.5140   -1.9486 C   0  0  0  0  0  0  0  0  0  0  0  0
   -0.4657   -5.3069   -3.3100 C   0  0  0  0  0  0  0  0  0  0  0  0
   -0.2060   -4.0394   -3.7982 C   0  0  0  0  0  0  0  0  0  0  0  0
   -0.0787   -2.9750   -2.9273 C   0  0  0  0  0  0  0  0  0  0  0  0
   -0.6348   -6.6608   -4.4248 S   0  0  0  0  0  0  0  0  0  0  0  0
    0.2026   -6.3661   -5.5772 O   0  0  0  0  0  0  0  0  0  0  0  0
   -0.1859   -7.8496   -3.7168 O   0  0  0  0  0  0  0  0  0  0  0  0
   -2.0426   -6.7404   -4.7823 O   0  0  0  0  0  1  0  0  0  0  0  0
    1.5904    1.6404    0.0846 H   0  0  0  0  0  0  0  0  0  0  0  0
    0.1254    1.9070   -0.8905 H   0  0  0  0  0  0  0  0  0  0  0  0
    0.0239    1.9067    0.8866 H   0  0  0  0  0  0  0  0  0  0  0  0
    0.0906    0.5618    2.7776 H   0  0  0  0  0  0  0  0  0  0  0  0
   -0.1805   -0.2241    5.3698 H   0  0  0  0  0  0  0  0  0  0  0  0
   -0.2891   -2.6024    6.5907 H   0  0  0  0  0  0  0  0  0  0  0  0
   -1.3227   -5.4103    6.3709 H   0  0  0  0  0  0  0  0  0  0  0  0
    0.2330   -6.2502    6.1643 H   0  0  0  0  0  0  0  0  0  0  0  0
    0.1959   -4.5917    6.8094 H   0  0  0  0  0  0  0  0  0  0  0  0
    0.9589   -5.9046    3.4039 H   0  0  0  0  0  0  0  0  0  0  0  0
   -0.6249   -6.5883    3.8428 H   0  0  0  0  0  0  0  0  0  0  0  0
   -0.5315   -5.1996    2.7333 H   0  0  0  0  0  0  0  0  0  0  0  0
   -0.5588   -4.6175   -0.0090 H   0  0  0  0  0  0  0  0  0  0  0  0
   -0.7952   -6.5052   -1.5704 H   0  0  0  0  0  0  0  0  0  0  0  0
   -0.1067   -3.8809   -4.8619 H   0  0  0  0  0  0  0  0  0  0  0  0
    0.1198   -1.9846   -3.3095 H   0  0  0  0  0  0  0  0  0  0  0  0
  1  2  1  0  0  0  0
  1 27  1  0  0  0  0
  1 28  1  0  0  0  0
  1 29  1  0  0  0  0
  2  7  1  0  0  0  0
  2  3  2  0  0  0  0
  3  4  1  0  0  0  0
  4  5  1  0  0  0  0
  4 17  1  0  0  0  0
  5  6  2  0  0  0  0
  5  7  1  0  0  0  0
  7  8  2  0  0  0  0
  8  9  1  0  0  0  0
  8 30  1  0  0  0  0
  9 13  1  0  0  0  0
  9 10  2  0  0  0  0
 10 11  1  0  0  0  0
 10 31  1  0  0  0  0
 11 12  2  0  0  0  0
 11 32  1  0  0  0  0
 12 13  1  0  0  0  0
 12 14  1  0  0  0  0
 14 15  1  0  0  0  0
 14 16  1  0  0  0  0
 15 33  1  0  0  0  0
 15 34  1  0  0  0  0
 15 35  1  0  0  0  0
 16 36  1  0  0  0  0
 16 37  1  0  0  0  0
 16 38  1  0  0  0  0
 17 22  2  0  0  0  0
 17 18  1  0  0  0  0
 18 19  2  0  0  0  0
 18 39  1  0  0  0  0
 19 20  1  0  0  0  0
 19 40  1  0  0  0  0
 20 21  2  0  0  0  0
 20 23  1  0  0  0  0
 21 22  1  0  0  0  0
 21 41  1  0  0  0  0
 22 42  1  0  0  0  0
 23 24  2  0  0  0  0
 23 25  2  0  0  0  0
 23 26  1  0  0  0  0
M  END
$$$$
ZINC31939389
 OpenBabel01252620473D

 34 36  0  0  0  0  0  0  0  0999 V2000
    0.2214    3.9648    0.5590 C   0  0  0  0  0  0  0  0  0  0  0  0
    1.2373    3.4052   -0.2759 O   0  0  0  0  0  0  0  0  0  0  0  0
    1.1047    2.0951   -0.6159 C   0  0  0  0  0  0  0  0  0  0  0  0
    0.0226    1.3679   -0.1560 C   0  0  0  0  0  0  0  0  0  0  0  0
   -0.1109    0.0222   -0.5075 C   0  0  0  0  0  0  0  0  0  0  0  0
    0.8500   -0.5821   -1.3221 C   0  0  0  0  0  0  0  0  0  0  0  0
    1.9271    0.1499   -1.7771 C   0  0  0  0  0  0  0  0  0  0  0  0
    2.0593    1.4863   -1.4272 C   0  0  0  0  0  0  0  0  0  0  0  0
    3.1229    2.2033   -1.8779 O   0  0  0  0  0  0  0  0  0  0  0  0
    3.3668   -0.7580   -2.9985 I   0  0  0  0  0  0  0  0  0  0  0  0
   -1.2626   -0.7582   -0.0196 C   0  0  0  0  0  0  0  0  0  0  0  0
   -1.2471   -2.0540   -0.0946 N   0  0  0  0  0  0  0  0  0  0  0  0
   -0.0258   -2.7402   -0.1106 N   0  0  0  0  0  0  0  0  0  0  0  0
   -0.0029   -4.1024   -0.3255 C   0  0  0  0  0  0  0  0  0  0  0  0
    1.1633   -4.7403   -0.3381 N   0  0  0  0  0  0  0  0  0  0  0  0
    1.1764   -6.0482   -0.5451 C   0  0  0  0  0  0  0  0  0  0  0  0
   -0.0506   -6.7164   -0.7450 C   0  0  0  0  0  0  0  0  0  0  0  0
   -0.0201   -8.1711   -0.9746 C   0  0  0  0  0  0  0  0  0  0  0  0
   -1.0471   -8.7973   -1.1530 O   0  0  0  0  0  0  0  0  0  0  0  0
    1.1810   -8.7902   -0.9815 N   0  0  0  0  0  0  0  0  0  0  0  0
    1.2393   -9.8757   -1.1494 H   0  0  0  0  0  0  0  0  0  0  0  0
    2.3189   -8.1056   -0.7862 C   0  0  0  0  0  0  0  0  0  0  0  0
    3.3722   -8.7122   -0.8028 O   0  5  0  0  0  0  0  0  0  0  0  0
    2.3448   -6.7784   -0.5727 N   0  0  0  0  0  0  0  0  0  0  0  0
   -1.1816   -6.0259   -0.7220 N   0  0  0  0  0  0  0  0  0  0  0  0
   -1.1502   -4.7533   -0.5111 N   0  0  0  0  0  0  0  0  0  0  0  0
    0.4499    5.0227    0.7555 H   0  0  0  0  0  0  0  0  0  0  0  0
    0.1848    3.4146    1.5108 H   0  0  0  0  0  0  0  0  0  0  0  0
   -0.7524    3.8878    0.0533 H   0  0  0  0  0  0  0  0  0  0  0  0
   -0.7202    1.8400    0.4698 H   0  0  0  0  0  0  0  0  0  0  0  0
    0.7497   -1.6222   -1.5952 H   0  0  0  0  0  0  0  0  0  0  0  0
    3.8776    1.7239   -2.5187 H   0  0  0  0  0  0  0  0  0  0  0  0
   -2.1350   -0.2424    0.4080 H   0  0  0  0  0  0  0  0  0  0  0  0
    0.9149   -2.1926    0.0482 H   0  0  0  0  0  0  0  0  0  0  0  0
  1  2  1  0  0  0  0
  1 27  1  0  0  0  0
  1 28  1  0  0  0  0
  1 29  1  0  0  0  0
  2  3  1  0  0  0  0
  3  8  2  0  0  0  0
  3  4  1  0  0  0  0
  4  5  2  0  0  0  0
  4 30  1  0  0  0  0
  5  6  1  0  0  0  0
  5 11  1  0  0  0  0
  6  7  2  0  0  0  0
  6 31  1  0  0  0  0
  7  8  1  0  0  0  0
  7 10  1  0  0  0  0
  8  9  1  0  0  0  0
  9 32  1  0  0  0  0
 11 12  2  0  0  0  0
 11 33  1  0  0  0  0
 12 13  1  0  0  0  0
 13 14  1  0  0  0  0
 13 34  1  0  0  0  0
 14 26  2  0  0  0  0
 14 15  1  0  0  0  0
 15 16  2  0  0  0  0
 16 24  1  0  0  0  0
 16 17  1  0  0  0  0
 17 18  1  0  0  0  0
 17 25  2  0  0  0  0
 18 19  2  0  0  0  0
 18 20  1  0  0  0  0
 20 21  1  0  0  0  0
 20 22  1  0  0  0  0
 22 23  1  0  0  0  0
 22 24  2  0  0  0  0
 25 26  1  0  0  0  0
M  CHG  1  23  -1
M  END
$$$$
ZINC13402212
 OpenBabel01252620473D

 39 40  0  0  0  0  0  0  0  0999 V2000
    0.1318   -0.3458    0.3509 C   0  0  0  0  0  0  0  0  0  0  0  0
    0.1400    1.1487    0.1577 C   0  0  0  0  0  0  0  0  0  0  0  0
    1.3384    1.8364    0.1356 C   0  0  0  0  0  0  0  0  0  0  0  0
    1.3471    3.2081   -0.0415 C   0  0  0  0  0  0  0  0  0  0  0  0
    0.1562    3.8952   -0.1974 C   0  0  0  0  0  0  0  0  0  0  0  0
   -1.0448    3.2116   -0.1755 C   0  0  0  0  0  0  0  0  0  0  0  0
   -1.0547    1.8338   -0.0036 C   0  0  0  0  0  0  0  0  0  0  0  0
   -2.2343    1.1582    0.0122 O   0  0  0  0  0  0  0  0  0  0  0  0
   -2.8738    0.9990    1.2802 C   0  0  0  0  0  0  0  0  0  0  0  0
   -4.1583    0.2313    1.1021 C   0  0  0  0  0  0  0  0  0  0  0  0
   -4.4931   -0.1427   -0.0019 O   0  0  0  0  0  0  0  0  0  0  0  0
   -4.9350   -0.0397    2.1697 N   0  0  0  0  0  0  0  0  0  0  0  0
   -6.1752   -0.6525    1.9922 C   0  0  0  0  0  0  0  0  0  0  0  0
   -6.9285   -0.3775    0.8548 C   0  0  0  0  0  0  0  0  0  0  0  0
   -8.1505   -0.9835    0.6732 C   0  0  0  0  0  0  0  0  0  0  0  0
   -8.6404   -1.8702    1.6397 C   0  0  0  0  0  0  0  0  0  0  0  0
   -7.8814   -2.1398    2.7850 C   0  0  0  0  0  0  0  0  0  0  0  0
   -6.6583   -1.5328    2.9559 C   0  0  0  0  0  0  0  0  0  0  0  0
   -9.9472   -2.5154    1.4530 C   0  0  0  0  0  0  0  0  0  0  0  0
  -10.6779   -2.2538    0.3471 C   0  0  0  0  0  0  0  0  0  0  0  0
  -11.9389   -2.8764    0.1670 C   0  0  0  0  0  0  0  0  0  0  0  0
  -12.3629   -3.6462    1.0081 O   0  0  0  0  0  0  0  0  0  0  0  0
   -2.5389    4.0736   -0.3707 Cl  0  0  0  0  0  0  0  0  0  0  0  0
    2.9889    4.1459   -0.0712 Br  0  0  0  0  0  0  0  0  0  0  0  0
    0.0730   -0.5744    1.4150 H   0  0  0  0  0  0  0  0  0  0  0  0
   -0.7303   -0.7736   -0.1608 H   0  0  0  0  0  0  0  0  0  0  0  0
    1.0469   -0.7705   -0.0619 H   0  0  0  0  0  0  0  0  0  0  0  0
    2.2692    1.3022    0.2564 H   0  0  0  0  0  0  0  0  0  0  0  0
    0.1652    4.9662   -0.3360 H   0  0  0  0  0  0  0  0  0  0  0  0
   -2.2140    0.4521    1.9538 H   0  0  0  0  0  0  0  0  0  0  0  0
   -3.0923    1.9798    1.7026 H   0  0  0  0  0  0  0  0  0  0  0  0
   -4.6314    0.1915    3.0615 H   0  0  0  0  0  0  0  0  0  0  0  0
   -6.5515    0.3095    0.1116 H   0  0  0  0  0  0  0  0  0  0  0  0
   -8.7328   -0.7723   -0.2116 H   0  0  0  0  0  0  0  0  0  0  0  0
   -8.2555   -2.8227    3.5334 H   0  0  0  0  0  0  0  0  0  0  0  0
   -6.0721   -1.7401    3.8390 H   0  0  0  0  0  0  0  0  0  0  0  0
  -10.3237   -3.1988    2.1998 H   0  0  0  0  0  0  0  0  0  0  0  0
  -10.3015   -1.5704   -0.3996 H   0  0  0  0  0  0  0  0  0  0  0  0
  -12.6686   -2.6152   -0.9375 O   0  0  0  0  0  1  0  0  0  0  0  0
  1  2  1  0  0  0  0
  1 25  1  0  0  0  0
  1 26  1  0  0  0  0
  1 27  1  0  0  0  0
  2  7  2  0  0  0  0
  2  3  1  0  0  0  0
  3  4  2  0  0  0  0
  3 28  1  0  0  0  0
  4  5  1  0  0  0  0
  4 24  1  0  0  0  0
  5  6  2  0  0  0  0
  5 29  1  0  0  0  0
  6  7  1  0  0  0  0
  6 23  1  0  0  0  0
  7  8  1  0  0  0  0
  8  9  1  0  0  0  0
  9 10  1  0  0  0  0
  9 30  1  0  0  0  0
  9 31  1  0  0  0  0
 10 11  2  0  0  0  0
 10 12  1  0  0  0  0
 12 13  1  0  0  0  0
 12 32  1  0  0  0  0
 13 18  2  0  0  0  0
 13 14  1  0  0  0  0
 14 15  2  0  0  0  0
 14 33  1  0  0  0  0
 15 16  1  0  0  0  0
 15 34  1  0  0  0  0
 16 17  2  0  0  0  0
 16 19  1  0  0  0  0
 17 18  1  0  0  0  0
 17 35  1  0  0  0  0
 18 36  1  0  0  0  0
 19 20  2  0  0  0  0
 19 37  1  0  0  0  0
 20 21  1  0  0  0  0
 20 38  1  0  0  0  0
 21 22  2  0  0  0  0
 21 39  1  0  0  0  0
M  END
$$$$
ZINC43700406
 OpenBabel01252620473D

 25 25  0  0  1  0  0  0  0  0999 V2000
   -0.0179    1.4673    0.0101 C   0  0  0  0  0  0  0  0  0  0  0  0
    1.4301    1.9705   -0.0010 C   0  0  0  0  0  0  0  0  0  0  0  0
    2.1354    1.3511   -1.0792 O   0  0  0  0  0  0  0  0  0  0  0  0
    2.2341   -0.0712   -0.9736 C   0  0  1  0  0  0  0  0  0  0  0  0
    2.7184   -0.3337   -0.0330 H   0  0  0  0  0  0  0  0  0  0  0  0
    0.8273   -0.6790   -1.0123 C   0  0  0  0  0  0  0  0  0  0  0  0
    0.0021   -0.0041    0.0020 N   0  0  0  0  0  0  0  0  0  0  0  0
   -0.7147   -0.7126    0.8969 C   0  0  0  0  0  0  0  0  0  0  0  0
   -0.6852   -1.9248    0.8740 O   0  0  0  0  0  0  0  0  0  0  0  0
   -1.5528    0.0015    1.9258 C   0  0  0  0  0  0  0  0  0  0  0  0
   -2.2590   -1.0271    2.8113 C   0  0  0  0  0  0  0  0  0  0  0  0
   -1.3045   -1.8207    3.4565 F   0  0  0  0  0  0  0  0  0  0  0  0
   -3.0370   -0.3642    3.7666 F   0  0  0  0  0  0  0  0  0  0  0  0
   -3.0813   -1.8369    2.0206 F   0  0  0  0  0  0  0  0  0  0  0  0
    3.0466   -0.6063   -2.1245 C   0  0  0  0  0  0  0  0  0  0  0  0
    3.4996    0.1589   -2.9586 O   0  0  0  0  0  0  0  0  0  0  0  0
    3.2508   -1.8044   -2.2215 O   0  0  0  0  0  1  0  0  0  0  0  0
   -0.5231    1.8226    0.9082 H   0  0  0  0  0  0  0  0  0  0  0  0
   -0.5402    1.8322   -0.8743 H   0  0  0  0  0  0  0  0  0  0  0  0
    1.4385    3.0523   -0.1343 H   0  0  0  0  0  0  0  0  0  0  0  0
    1.9114    1.7155    0.9431 H   0  0  0  0  0  0  0  0  0  0  0  0
    0.3901   -0.5302   -1.9996 H   0  0  0  0  0  0  0  0  0  0  0  0
    0.8818   -1.7450   -0.7912 H   0  0  0  0  0  0  0  0  0  0  0  0
   -0.9121    0.6324    2.5419 H   0  0  0  0  0  0  0  0  0  0  0  0
   -2.2964    0.6198    1.4231 H   0  0  0  0  0  0  0  0  0  0  0  0
  1  7  1  0  0  0  0
  1  2  1  0  0  0  0
  1 18  1  0  0  0  0
  1 19  1  0  0  0  0
  2  3  1  0  0  0  0
  2 20  1  0  0  0  0
  2 21  1  0  0  0  0
  3  4  1  0  0  0  0
  4  5  1  1  0  0  0
  4  6  1  0  0  0  0
  4 15  1  0  0  0  0
  6  7  1  0  0  0  0
  6 22  1  0  0  0  0
  6 23  1  0  0  0  0
  7  8  1  0  0  0  0
  8  9  2  0  0  0  0
  8 10  1  0  0  0  0
 10 11  1  0  0  0  0
 10 24  1  0  0  0  0
 10 25  1  0  0  0  0
 11 12  1  0  0  0  0
 11 13  1  0  0  0  0
 11 14  1  0  0  0  0
 15 16  2  0  0  0  0
 15 17  1  0  0  0  0
M  END
$$$$
ZINC35140566
 OpenBabel01252620473D

 32 32  0  0  0  0  0  0  0  0999 V2000
   -0.0187    1.5258    0.0104 C   0  0  0  0  0  0  0  0  0  0  0  0
    0.0021   -0.0041    0.0020 C   0  0  0  0  0  0  0  0  0  0  0  0
    0.7421   -0.5109    1.2415 C   0  0  0  0  0  0  0  0  0  0  0  0
   -1.3723   -0.5112    0.0124 N   0  0  0  0  0  0  0  0  0  0  0  0
   -2.2686   -0.1755    1.1216 C   0  0  0  0  0  0  0  0  0  0  0  0
   -2.9164    1.1593    0.8576 C   0  0  0  0  0  0  0  0  0  0  0  0
   -2.6553    1.7701   -0.1571 O   0  0  0  0  0  0  0  0  0  0  0  0
   -3.7861    1.6744    1.7491 N   0  0  0  0  0  0  0  0  0  0  0  0
   -1.9128   -1.4638   -1.2296 S   0  0  0  0  0  0  0  0  0  0  0  0
   -3.3275   -1.3325   -1.2562 O   0  0  0  0  0  0  0  0  0  0  0  0
   -1.0987   -1.1643   -2.3551 O   0  0  0  0  0  0  0  0  0  0  0  0
   -1.5703   -3.1356   -0.7909 C   0  0  0  0  0  0  0  0  0  0  0  0
   -2.3544   -4.0028   -0.1216 C   0  0  0  0  0  0  0  0  0  0  0  0
   -1.7972   -5.3182    0.0904 C   0  0  0  0  0  0  0  0  0  0  0  0
   -0.5320   -5.5453   -0.4107 C   0  0  0  0  0  0  0  0  0  0  0  0
   -0.1079   -4.0908   -1.1314 S   0  0  0  0  0  0  0  0  0  0  0  0
   -2.5405   -6.3624    0.8046 C   0  0  0  0  0  0  0  0  0  0  0  0
   -3.6614   -6.1285    1.2373 O   0  0  0  0  0  0  0  0  0  0  0  0
   -2.0398   -7.4673    0.9676 O   0  0  0  0  0  1  0  0  0  0  0  0
    1.0039    1.9031    0.0027 H   0  0  0  0  0  0  0  0  0  0  0  0
   -0.5459    1.8868   -0.8726 H   0  0  0  0  0  0  0  0  0  0  0  0
   -0.5289    1.8773    0.9072 H   0  0  0  0  0  0  0  0  0  0  0  0
    0.5123   -0.3556   -0.8948 H   0  0  0  0  0  0  0  0  0  0  0  0
    0.2319   -0.1594    2.1383 H   0  0  0  0  0  0  0  0  0  0  0  0
    0.7568   -1.6008    1.2356 H   0  0  0  0  0  0  0  0  0  0  0  0
    1.7647   -0.1336    1.2338 H   0  0  0  0  0  0  0  0  0  0  0  0
   -3.0386   -0.9417    1.2112 H   0  0  0  0  0  0  0  0  0  0  0  0
   -1.6968   -0.1249    2.0482 H   0  0  0  0  0  0  0  0  0  0  0  0
   -3.9950    1.1859    2.5607 H   0  0  0  0  0  0  0  0  0  0  0  0
   -4.2031    2.5335    1.5792 H   0  0  0  0  0  0  0  0  0  0  0  0
   -3.3373   -3.7314    0.2342 H   0  0  0  0  0  0  0  0  0  0  0  0
    0.0507   -6.4530   -0.3550 H   0  0  0  0  0  0  0  0  0  0  0  0
  1  2  1  0  0  0  0
  1 20  1  0  0  0  0
  1 21  1  0  0  0  0
  1 22  1  0  0  0  0
  2  3  1  0  0  0  0
  2  4  1  0  0  0  0
  2 23  1  0  0  0  0
  3 24  1  0  0  0  0
  3 25  1  0  0  0  0
  3 26  1  0  0  0  0
  4  5  1  0  0  0  0
  4  9  1  0  0  0  0
  5  6  1  0  0  0  0
  5 27  1  0  0  0  0
  5 28  1  0  0  0  0
  6  7  2  0  0  0  0
  6  8  1  0  0  0  0
  8 29  1  0  0  0  0
  8 30  1  0  0  0  0
  9 10  2  0  0  0  0
  9 11  2  0  0  0  0
  9 12  1  0  0  0  0
 12 16  1  0  0  0  0
 12 13  2  0  0  0  0
 13 14  1  0  0  0  0
 13 31  1  0  0  0  0
 14 15  2  0  0  0  0
 14 17  1  0  0  0  0
 15 16  1  0  0  0  0
 15 32  1  0  0  0  0
 17 18  2  0  0  0  0
 17 19  1  0  0  0  0
M  END
$$$$
ZINC48724976
 OpenBabel01252620473D

 26 26  0  0  0  0  0  0  0  0999 V2000
   -0.1067    1.5112    0.2744 C   0  0  0  0  0  0  0  0  0  0  0  0
   -0.0600   -0.0168    0.2113 C   0  0  0  0  0  0  0  0  0  0  0  0
    0.8514   -0.5205    1.2417 N   0  0  0  0  0  0  0  0  0  0  0  0
    0.3669   -0.7329    2.6079 C   0  0  0  0  0  0  0  0  0  0  0  0
   -0.0203   -2.2019    2.7891 C   0  0  0  0  0  0  0  0  0  0  0  0
    2.1356   -0.7886    0.9328 C   0  0  0  0  0  0  0  0  0  0  0  0
    2.5646   -0.5166   -0.1713 O   0  0  0  0  0  0  0  0  0  0  0  0
    3.0231   -1.4139    1.9378 C   0  0  0  0  0  0  0  0  0  0  0  0
    4.2858   -1.7659    1.6001 O   0  5  0  0  0  0  0  0  0  0  0  0
    2.5877   -1.6267    3.1526 N   0  0  0  0  0  0  0  0  0  0  0  0
    3.3985   -2.1981    4.0708 C   0  0  0  0  0  0  0  0  0  0  0  0
    4.6608   -2.6118    3.9583 N   0  0  0  0  0  0  0  0  0  0  0  0
    5.2227   -3.1223    4.9685 N   0  0  0  0  0  0  0  0  0  0  0  0
    4.6029   -3.2568    6.1209 C   0  0  0  0  0  0  0  0  0  0  0  0
    3.0851   -2.6060    5.7826 S   0  0  0  0  0  0  0  0  0  0  0  0
    0.8922    1.9125    0.1036 H   0  0  0  0  0  0  0  0  0  0  0  0
   -0.7848    1.8860   -0.4922 H   0  0  0  0  0  0  0  0  0  0  0  0
   -0.4607    1.8236    1.2569 H   0  0  0  0  0  0  0  0  0  0  0  0
   -1.0589   -0.4182    0.3821 H   0  0  0  0  0  0  0  0  0  0  0  0
    0.2940   -0.3292   -0.7711 H   0  0  0  0  0  0  0  0  0  0  0  0
    1.1536   -0.4744    3.3167 H   0  0  0  0  0  0  0  0  0  0  0  0
   -0.5044   -0.1028    2.7864 H   0  0  0  0  0  0  0  0  0  0  0  0
   -0.8070   -2.4604    2.0803 H   0  0  0  0  0  0  0  0  0  0  0  0
    0.8510   -2.8321    2.6105 H   0  0  0  0  0  0  0  0  0  0  0  0
   -0.3808   -2.3599    3.8056 H   0  0  0  0  0  0  0  0  0  0  0  0
    4.9725   -3.6730    7.0464 H   0  0  0  0  0  0  0  0  0  0  0  0
  1  2  1  0  0  0  0
  1 16  1  0  0  0  0
  1 17  1  0  0  0  0
  1 18  1  0  0  0  0
  2  3  1  0  0  0  0
  2 19  1  0  0  0  0
  2 20  1  0  0  0  0
  3  4  1  0  0  0  0
  3  6  1  0  0  0  0
  4  5  1  0  0  0  0
  4 21  1  0  0  0  0
  4 22  1  0  0  0  0
  5 23  1  0  0  0  0
  5 24  1  0  0  0  0
  5 25  1  0  0  0  0
  6  7  2  0  0  0  0
  6  8  1  0  0  0  0
  8  9  1  0  0  0  0
  8 10  2  0  0  0  0
 10 11  1  0  0  0  0
 11 15  1  0  0  0  0
 11 12  2  0  0  0  0
 12 13  1  0  0  0  0
 13 14  2  0  0  0  0
 14 15  1  0  0  0  0
 14 26  1  0  0  0  0
M  CHG  1   9  -1
M  END
$$$$
ZINC16713762
 OpenBabel01252620473D

 62 64  0  0  1  0  0  0  0  0999 V2000
   -2.3675   -0.4010    1.7020 C   0  0  0  0  0  0  0  0  0  0  0  0
   -1.0996   -0.6560    0.9284 C   0  0  0  0  0  0  0  0  0  0  0  0
   -1.1635   -1.0499   -0.3893 C   0  0  0  0  0  0  0  0  0  0  0  0
    0.0056   -1.2854   -1.1039 C   0  0  0  0  0  0  0  0  0  0  0  0
    1.2438   -1.1249   -0.4915 C   0  0  0  0  0  0  0  0  0  0  0  0
    1.3166   -0.7314    0.8254 C   0  0  0  0  0  0  0  0  0  0  0  0
    0.1432   -0.4874    1.5460 C   0  0  0  0  0  0  0  0  0  0  0  0
    0.2166   -0.0594    2.9568 C   0  0  0  0  0  0  0  0  0  0  0  0
   -0.0892   -1.0119    4.0289 C   0  0  0  0  0  0  0  0  0  0  0  0
   -0.3737   -2.4872    3.8694 C   0  0  2  0  0  0  0  0  0  0  0  0
   -1.2559   -2.6335    3.2462 H   0  0  0  0  0  0  0  0  0  0  0  0
   -0.6189   -3.0050    5.2206 N   0  0  0  0  0  0  0  0  0  0  0  0
   -0.4990   -1.9803    6.0842 C   0  0  0  0  0  0  0  0  0  0  0  0
   -0.6401   -2.0629    7.2881 O   0  0  0  0  0  0  0  0  0  0  0  0
   -0.1652   -0.7404    5.3524 C   0  0  0  0  0  0  0  0  0  0  0  0
    0.0306    0.4740    5.9160 O   0  5  0  0  0  0  0  0  0  0  0  0
   -0.9384   -4.3920    5.5675 C   0  0  0  0  0  0  0  0  0  0  0  0
    0.3564   -5.1626    5.8331 C   0  0  0  0  0  0  0  0  0  0  0  0
    0.0227   -6.6111    6.1954 C   0  0  0  0  0  0  0  0  0  0  0  0
    1.2320   -7.3308    6.4435 O   0  0  0  0  0  0  0  0  0  0  0  0
    1.0313   -8.7020    6.7922 C   0  0  0  0  0  0  0  0  0  0  0  0
    0.8154   -3.1809    3.2565 C   0  0  0  0  0  0  0  0  0  0  0  0
    1.9800   -3.3311    3.9864 C   0  0  0  0  0  0  0  0  0  0  0  0
    3.0710   -3.9673    3.4248 C   0  0  0  0  0  0  0  0  0  0  0  0
    2.9982   -4.4538    2.1328 C   0  0  0  0  0  0  0  0  0  0  0  0
    1.8333   -4.3042    1.4025 C   0  0  0  0  0  0  0  0  0  0  0  0
    0.7398   -3.6720    1.9669 C   0  0  0  0  0  0  0  0  0  0  0  0
    1.7333   -4.9689   -0.3651 Br  0  0  0  0  0  0  0  0  0  0  0  0
    0.5309    1.0841    3.2302 O   0  0  0  0  0  0  0  0  0  0  0  0
   -0.0618   -1.6735   -2.4025 O   0  0  0  0  0  0  0  0  0  0  0  0
    1.1777   -1.8679   -3.0866 C   0  0  0  0  0  0  0  0  0  0  0  0
    0.9021   -2.2945   -4.5299 C   0  0  0  0  0  0  0  0  0  0  0  0
    0.2034   -1.1548   -5.2740 C   0  0  0  0  0  0  0  0  0  0  0  0
    2.2244   -2.6230   -5.2259 C   0  0  0  0  0  0  0  0  0  0  0  0
   -2.6107    0.6608    1.6612 H   0  0  0  0  0  0  0  0  0  0  0  0
   -3.1824   -0.9775    1.2643 H   0  0  0  0  0  0  0  0  0  0  0  0
   -2.2264   -0.7017    2.7402 H   0  0  0  0  0  0  0  0  0  0  0  0
   -2.1231   -1.1764   -0.8684 H   0  0  0  0  0  0  0  0  0  0  0  0
    2.1496   -1.3096   -1.0500 H   0  0  0  0  0  0  0  0  0  0  0  0
    2.2786   -0.6073    1.3003 H   0  0  0  0  0  0  0  0  0  0  0  0
   -1.5611   -4.4086    6.4620 H   0  0  0  0  0  0  0  0  0  0  0  0
   -1.4760   -4.8584    4.7419 H   0  0  0  0  0  0  0  0  0  0  0  0
    0.9791   -5.1460    4.9386 H   0  0  0  0  0  0  0  0  0  0  0  0
    0.8940   -4.6961    6.6587 H   0  0  0  0  0  0  0  0  0  0  0  0
   -0.6000   -6.6277    7.0899 H   0  0  0  0  0  0  0  0  0  0  0  0
   -0.5148   -7.0775    5.3699 H   0  0  0  0  0  0  0  0  0  0  0  0
    0.4296   -8.7619    7.6991 H   0  0  0  0  0  0  0  0  0  0  0  0
    0.5147   -9.2118    5.9790 H   0  0  0  0  0  0  0  0  0  0  0  0
    1.9966   -9.1781    6.9645 H   0  0  0  0  0  0  0  0  0  0  0  0
    2.0374   -2.9509    4.9956 H   0  0  0  0  0  0  0  0  0  0  0  0
    3.9806   -4.0841    3.9952 H   0  0  0  0  0  0  0  0  0  0  0  0
    3.8509   -4.9503    1.6938 H   0  0  0  0  0  0  0  0  0  0  0  0
   -0.1713   -3.5583    1.3983 H   0  0  0  0  0  0  0  0  0  0  0  0
    1.7436   -0.9363   -3.0849 H   0  0  0  0  0  0  0  0  0  0  0  0
    1.7534   -2.6438   -2.5820 H   0  0  0  0  0  0  0  0  0  0  0  0
    0.2615   -3.1764   -4.5320 H   0  0  0  0  0  0  0  0  0  0  0  0
   -0.7386   -0.9208   -4.7782 H   0  0  0  0  0  0  0  0  0  0  0  0
    0.8440   -0.2729   -5.2719 H   0  0  0  0  0  0  0  0  0  0  0  0
    0.0071   -1.4588   -6.3022 H   0  0  0  0  0  0  0  0  0  0  0  0
    2.7222   -3.4350   -4.6957 H   0  0  0  0  0  0  0  0  0  0  0  0
    2.0281   -2.9270   -6.2541 H   0  0  0  0  0  0  0  0  0  0  0  0
    2.8650   -1.7411   -5.2237 H   0  0  0  0  0  0  0  0  0  0  0  0
  1  2  1  0  0  0  0
  1 35  1  0  0  0  0
  1 36  1  0  0  0  0
  1 37  1  0  0  0  0
  2  7  2  0  0  0  0
  2  3  1  0  0  0  0
  3  4  2  0  0  0  0
  3 38  1  0  0  0  0
  4  5  1  0  0  0  0
  4 30  1  0  0  0  0
  5  6  2  0  0  0  0
  5 39  1  0  0  0  0
  6  7  1  0  0  0  0
  6 40  1  0  0  0  0
  7  8  1  0  0  0  0
  8  9  1  0  0  0  0
  8 29  2  0  0  0  0
  9 15  2  0  0  0  0
  9 10  1  0  0  0  0
 10 12  1  0  0  0  0
 10 22  1  0  0  0  0
 10 11  1  6  0  0  0
 12 17  1  0  0  0  0
 12 13  1  0  0  0  0
 13 14  2  0  0  0  0
 13 15  1  0  0  0  0
 15 16  1  0  0  0  0
 17 18  1  0  0  0  0
 17 41  1  0  0  0  0
 17 42  1  0  0  0  0
 18 19  1  0  0  0  0
 18 43  1  0  0  0  0
 18 44  1  0  0  0  0
 19 20  1  0  0  0  0
 19 45  1  0  0  0  0
 19 46  1  0  0  0  0
 20 21  1  0  0  0  0
 21 47  1  0  0  0  0
 21 48  1  0  0  0  0
 21 49  1  0  0  0  0
 22 27  2  0  0  0  0
 22 23  1  0  0  0  0
 23 24  2  0  0  0  0
 23 50  1  0  0  0  0
 24 25  1  0  0  0  0
 24 51  1  0  0  0  0
 25 26  2  0  0  0  0
 25 52  1  0  0  0  0
 26 27  1  0  0  0  0
 26 28  1  0  0  0  0
 27 53  1  0  0  0  0
 30 31  1  0  0  0  0
 31 32  1  0  0  0  0
 31 54  1  0  0  0  0
 31 55  1  0  0  0  0
 32 33  1  0  0  0  0
 32 34  1  0  0  0  0
 32 56  1  0  0  0  0
 33 57  1  0  0  0  0
 33 58  1  0  0  0  0
 33 59  1  0  0  0  0
 34 60  1  0  0  0  0
 34 61  1  0  0  0  0
 34 62  1  0  0  0  0
M  CHG  1  16  -1
M  END
$$$$
ZINC58380516
 OpenBabel01252620473D

 40 41  0  0  0  0  0  0  0  0999 V2000
    2.1654    0.7980   -8.4073 C   0  0  0  0  0  0  0  0  0  0  0  0
    2.1080   -0.7080   -8.1438 C   0  0  0  0  0  0  0  0  0  0  0  0
    2.1178   -1.0098   -6.3551 S   0  0  0  0  0  0  0  0  0  0  0  0
    2.0468   -2.8170   -6.2146 C   0  0  0  0  0  0  0  0  0  0  0  0
    2.0489   -3.2141   -4.7370 C   0  0  0  0  0  0  0  0  0  0  0  0
    1.9899   -4.7154   -4.6202 C   0  0  0  0  0  0  0  0  0  0  0  0
    1.9501   -5.4003   -5.6204 O   0  0  0  0  0  0  0  0  0  0  0  0
    1.9814   -5.2969   -3.4044 N   0  0  0  0  0  0  0  0  0  0  0  0
    1.8292   -6.6844   -3.2930 C   0  0  0  0  0  0  0  0  0  0  0  0
    1.1172   -7.2219   -2.2286 C   0  0  0  0  0  0  0  0  0  0  0  0
    0.9664   -8.5911   -2.1168 C   0  0  0  0  0  0  0  0  0  0  0  0
    1.5239   -9.4303   -3.0643 C   0  0  0  0  0  0  0  0  0  0  0  0
    2.2380   -8.8972   -4.1324 C   0  0  0  0  0  0  0  0  0  0  0  0
    2.3848   -7.5225   -4.2491 C   0  0  0  0  0  0  0  0  0  0  0  0
    2.8025   -9.7454   -5.0901 N   0  0  0  0  0  2  0  0  0  0  0  0
    2.6213  -11.3857   -4.9531 S   0  0  0  0  0  0  0  0  0  0  0  0
    3.3329  -11.7770   -3.7870 O   0  0  0  0  0  0  0  0  0  0  0  0
    1.2375  -11.6574   -5.1282 O   0  0  0  0  0  0  0  0  0  0  0  0
    3.4554  -12.1181   -6.3216 C   0  0  0  0  0  0  0  0  0  0  0  0
    4.7438  -12.5285   -6.4157 C   0  0  0  0  0  0  0  0  0  0  0  0
    5.1859  -13.0822   -7.6025 C   0  0  0  0  0  0  0  0  0  0  0  0
    4.3180  -13.1985   -8.6372 C   0  0  0  0  0  0  0  0  0  0  0  0
    2.8207  -12.5194   -7.9413 S   0  0  0  0  0  0  0  0  0  0  0  0
    1.3752  -10.7684   -2.9522 F   0  0  0  0  0  0  0  0  0  0  0  0
    1.2995    1.2796   -7.9528 H   0  0  0  0  0  0  0  0  0  0  0  0
    3.0779    1.2081   -7.9746 H   0  0  0  0  0  0  0  0  0  0  0  0
    2.1595    0.9793   -9.4821 H   0  0  0  0  0  0  0  0  0  0  0  0
    1.1955   -1.1181   -8.5765 H   0  0  0  0  0  0  0  0  0  0  0  0
    2.9738   -1.1896   -8.5983 H   0  0  0  0  0  0  0  0  0  0  0  0
    1.1355   -3.1827   -6.6878 H   0  0  0  0  0  0  0  0  0  0  0  0
    2.9139   -3.2542   -6.7095 H   0  0  0  0  0  0  0  0  0  0  0  0
    2.9601   -2.8483   -4.2638 H   0  0  0  0  0  0  0  0  0  0  0  0
    1.1818   -2.7768   -4.2420 H   0  0  0  0  0  0  0  0  0  0  0  0
    2.0807   -4.7543   -2.6066 H   0  0  0  0  0  0  0  0  0  0  0  0
    0.6811   -6.5691   -1.4870 H   0  0  0  0  0  0  0  0  0  0  0  0
    0.4126   -9.0066   -1.2879 H   0  0  0  0  0  0  0  0  0  0  0  0
    2.9349   -7.1058   -5.0798 H   0  0  0  0  0  0  0  0  0  0  0  0
    5.4150  -12.4240   -5.5761 H   0  0  0  0  0  0  0  0  0  0  0  0
    6.2077  -13.4169   -7.7040 H   0  0  0  0  0  0  0  0  0  0  0  0
    4.4872  -13.6013   -9.6249 H   0  0  0  0  0  0  0  0  0  0  0  0
  1  2  1  0  0  0  0
  1 25  1  0  0  0  0
  1 26  1  0  0  0  0
  1 27  1  0  0  0  0
  2  3  1  0  0  0  0
  2 28  1  0  0  0  0
  2 29  1  0  0  0  0
  3  4  1  0  0  0  0
  4  5  1  0  0  0  0
  4 30  1  0  0  0  0
  4 31  1  0  0  0  0
  5  6  1  0  0  0  0
  5 32  1  0  0  0  0
  5 33  1  0  0  0  0
  6  7  2  0  0  0  0
  6  8  1  0  0  0  0
  8  9  1  0  0  0  0
  8 34  1  0  0  0  0
  9 14  2  0  0  0  0
  9 10  1  0  0  0  0
 10 11  2  0  0  0  0
 10 35  1  0  0  0  0
 11 12  1  0  0  0  0
 11 36  1  0  0  0  0
 12 13  2  0  0  0  0
 12 24  1  0  0  0  0
 13 14  1  0  0  0  0
 13 15  1  0  0  0  0
 14 37  1  0  0  0  0
 15 16  1  0  0  0  0
 16 17  2  0  0  0  0
 16 18  2  0  0  0  0
 16 19  1  0  0  0  0
 19 23  1  0  0  0  0
 19 20  2  0  0  0  0
 20 21  1  0  0  0  0
 20 38  1  0  0  0  0
 21 22  2  0  0  0  0
 21 39  1  0  0  0  0
 22 23  1  0  0  0  0
 22 40  1  0  0  0  0
M  END
$$$$
ZINC25000983
 OpenBabel01252620473D

 57 60  0  0  1  0  0  0  0  0999 V2000
    4.8578    6.3388    5.9063 C   0  0  0  0  0  0  0  0  0  0  0  0
    5.8197    6.4561    4.7223 C   0  0  1  0  0  0  0  0  0  0  0  0
    6.7938    6.1270    5.1132 H   0  0  0  0  0  0  0  0  0  0  0  0
    5.4738    5.4151    3.6890 C   0  0  0  0  0  0  0  0  0  0  0  0
    4.8268    5.7234    2.7105 O   0  0  0  0  0  0  0  0  0  0  0  0
    5.8833    4.1415    3.8522 N   0  0  0  0  0  0  0  0  0  0  0  0
    5.6585    3.1994    2.8423 C   0  0  0  0  0  0  0  0  0  0  0  0
    5.6826    3.5888    1.5095 C   0  0  0  0  0  0  0  0  0  0  0  0
    5.4607    2.6565    0.5151 C   0  0  0  0  0  0  0  0  0  0  0  0
    5.2152    1.3363    0.8453 C   0  0  0  0  0  0  0  0  0  0  0  0
    5.1854    0.9463    2.1717 C   0  0  0  0  0  0  0  0  0  0  0  0
    5.4112    1.8729    3.1707 C   0  0  0  0  0  0  0  0  0  0  0  0
    4.9326    0.1499   -0.4264 S   0  0  0  0  0  0  0  0  0  0  0  0
    4.4675    0.8713   -1.5588 O   0  0  0  0  0  0  0  0  0  0  0  0
    4.1872   -0.9069    0.1625 O   0  0  0  0  0  0  0  0  0  0  0  0
    6.4054   -0.4836   -0.8410 N   0  0  0  0  0  2  0  0  0  0  0  0
    7.1231   -1.2268    0.0799 C   0  0  0  0  0  0  0  0  0  0  0  0
    8.1367   -1.9706   -0.3383 N   0  0  0  0  0  0  0  0  0  0  0  0
    8.8430   -2.6927    0.5157 C   0  0  0  0  0  0  0  0  0  0  0  0
    8.5114   -2.6645    1.8612 C   0  0  0  0  0  0  0  0  0  0  0  0
    7.4453   -1.8757    2.2644 C   0  0  0  0  0  0  0  0  0  0  0  0
    6.7800   -1.1780    1.3587 N   0  0  0  0  0  0  0  0  0  0  0  0
    5.6761    8.1048    3.9892 S   0  0  0  0  0  0  0  0  0  0  0  0
    6.2663    9.0872    5.3276 C   0  0  0  0  0  0  0  0  0  0  0  0
    6.3849   10.4473    5.3459 N   0  0  0  0  0  0  0  0  0  0  0  0
    6.7343    7.6238    6.8881 H   0  0  0  0  0  0  0  0  0  0  0  0
    6.8801   10.7594    6.5819 C   0  0  0  0  0  0  0  0  0  0  0  0
    7.0439    9.6398    7.2281 N   0  0  0  0  0  0  0  0  0  0  0  0
    6.6752    8.6498    6.4960 N   0  0  0  0  0  0  0  0  0  0  0  0
    7.1806   12.1421    7.1005 C   0  0  0  0  0  0  0  0  0  0  0  0
    6.4213   12.3722    8.4087 C   0  0  0  0  0  0  0  0  0  0  0  0
    4.9033   12.4160    8.1379 C   0  0  0  0  0  0  0  0  0  0  0  0
    4.3762   13.5026    9.1088 C   0  0  0  0  0  0  0  0  0  0  0  0
    5.5020   14.5659    9.0767 C   0  0  0  0  0  0  0  0  0  0  0  0
    6.8019   13.7384    9.0057 C   0  0  0  0  0  0  0  0  0  0  0  0
    5.1103    7.0987    6.6605 H   0  0  0  0  0  0  0  0  0  0  0  0
    4.9451    5.3368    6.3518 H   0  0  0  0  0  0  0  0  0  0  0  0
    3.8265    6.4966    5.5578 H   0  0  0  0  0  0  0  0  0  0  0  0
    6.3943    3.8426    4.7793 H   0  0  0  0  0  0  0  0  0  0  0  0
    5.8750    4.6196    1.2509 H   0  0  0  0  0  0  0  0  0  0  0  0
    5.4793    2.9587   -0.5216 H   0  0  0  0  0  0  0  0  0  0  0  0
    4.9889   -0.0846    2.4266 H   0  0  0  0  0  0  0  0  0  0  0  0
    5.3918    1.5669    4.2063 H   0  0  0  0  0  0  0  0  0  0  0  0
    9.6680   -3.2973    0.1687 H   0  0  0  0  0  0  0  0  0  0  0  0
    9.0686   -3.2479    2.5792 H   0  0  0  0  0  0  0  0  0  0  0  0
    7.1609   -1.8319    3.3053 H   0  0  0  0  0  0  0  0  0  0  0  0
    6.8652   12.8891    6.3572 H   0  0  0  0  0  0  0  0  0  0  0  0
    8.2612   12.2389    7.2819 H   0  0  0  0  0  0  0  0  0  0  0  0
    6.6843   11.5512    9.0919 H   0  0  0  0  0  0  0  0  0  0  0  0
    4.7261   12.6816    7.0852 H   0  0  0  0  0  0  0  0  0  0  0  0
    4.4651   11.4286    8.3456 H   0  0  0  0  0  0  0  0  0  0  0  0
    3.4155   13.8901    8.7388 H   0  0  0  0  0  0  0  0  0  0  0  0
    4.2345   13.0643   10.1077 H   0  0  0  0  0  0  0  0  0  0  0  0
    5.3735   15.2094    8.1939 H   0  0  0  0  0  0  0  0  0  0  0  0
    5.4527   15.1798    9.9882 H   0  0  0  0  0  0  0  0  0  0  0  0
    7.2301   13.5938   10.0086 H   0  0  0  0  0  0  0  0  0  0  0  0
    7.5436   14.2280    8.3575 H   0  0  0  0  0  0  0  0  0  0  0  0
  1  2  1  0  0  0  0
  1 36  1  0  0  0  0
  1 37  1  0  0  0  0
  1 38  1  0  0  0  0
  2  3  1  1  0  0  0
  2  4  1  0  0  0  0
  2 23  1  0  0  0  0
  4  5  2  0  0  0  0
  4  6  1  0  0  0  0
  6  7  1  0  0  0  0
  6 39  1  0  0  0  0
  7 12  2  0  0  0  0
  7  8  1  0  0  0  0
  8  9  2  0  0  0  0
  8 40  1  0  0  0  0
  9 10  1  0  0  0  0
  9 41  1  0  0  0  0
 10 11  2  0  0  0  0
 10 13  1  0  0  0  0
 11 12  1  0  0  0  0
 11 42  1  0  0  0  0
 12 43  1  0  0  0  0
 13 14  2  0  0  0  0
 13 15  2  0  0  0  0
 13 16  1  0  0  0  0
 16 17  1  0  0  0  0
 17 22  2  0  0  0  0
 17 18  1  0  0  0  0
 18 19  2  0  0  0  0
 19 20  1  0  0  0  0
 19 44  1  0  0  0  0
 20 21  2  0  0  0  0
 20 45  1  0  0  0  0
 21 22  1  0  0  0  0
 21 46  1  0  0  0  0
 23 24  1  0  0  0  0
 24 25  2  0  0  0  0
 24 29  1  0  0  0  0
 25 27  1  0  0  0  0
 26 29  1  0  0  0  0
 27 30  1  0  0  0  0
 27 28  2  0  0  0  0
 28 29  1  0  0  0  0
 30 31  1  0  0  0  0
 30 47  1  0  0  0  0
 30 48  1  0  0  0  0
 31 35  1  0  0  0  0
 31 32  1  0  0  0  0
 31 49  1  0  0  0  0
 32 33  1  0  0  0  0
 32 50  1  0  0  0  0
 32 51  1  0  0  0  0
 33 34  1  0  0  0  0
 33 52  1  0  0  0  0
 33 53  1  0  0  0  0
 34 35  1  0  0  0  0
 34 54  1  0  0  0  0
 34 55  1  0  0  0  0
 35 56  1  0  0  0  0
 35 57  1  0  0  0  0
M  END
$$$$
ZINC42244203
 OpenBabel01252620473D

 26 26  0  0  0  0  0  0  0  0999 V2000
   -0.0184    1.5028    0.0103 C   0  0  0  0  0  0  0  0  0  0  0  0
    0.0021   -0.0041    0.0020 C   0  0  0  0  0  0  0  0  0  0  0  0
   -1.1433   -0.6863    0.0093 C   0  0  0  0  0  0  0  0  0  0  0  0
   -1.1234   -2.1506    0.0012 C   0  0  0  0  0  0  0  0  0  0  0  0
   -2.2826   -2.8411    0.0086 C   0  0  0  0  0  0  0  0  0  0  0  0
   -2.2627   -4.3072    0.0005 C   0  0  0  0  0  0  0  0  0  0  0  0
   -1.0814   -4.9680   -0.0143 O   0  5  0  0  0  0  0  0  0  0  0  0
   -3.3838   -4.9749    0.0077 N   0  0  0  0  0  0  0  0  0  0  0  0
   -3.3613   -6.6308   -0.0015 S   0  0  0  0  0  0  0  0  0  0  0  0
   -2.8170   -7.0227   -1.2542 O   0  0  0  0  0  0  0  0  0  0  0  0
   -2.7932   -7.0360    1.2364 O   0  0  0  0  0  0  0  0  0  0  0  0
   -5.0373   -7.1746    0.0116 C   0  0  0  0  0  0  0  0  0  0  0  0
   -5.8575   -7.4377   -1.0349 C   0  0  0  0  0  0  0  0  0  0  0  0
   -7.1500   -7.8586   -0.7843 C   0  0  0  0  0  0  0  0  0  0  0  0
   -7.5591   -7.9958    0.5007 C   0  0  0  0  0  0  0  0  0  0  0  0
   -6.0932   -7.5296    1.4067 S   0  0  0  0  0  0  0  0  0  0  0  0
    1.0042    1.8801    0.0026 H   0  0  0  0  0  0  0  0  0  0  0  0
   -0.5455    1.8639   -0.8728 H   0  0  0  0  0  0  0  0  0  0  0  0
   -0.5286    1.8543    0.9071 H   0  0  0  0  0  0  0  0  0  0  0  0
    0.9446   -0.5313   -0.0098 H   0  0  0  0  0  0  0  0  0  0  0  0
   -2.0858   -0.1591    0.0211 H   0  0  0  0  0  0  0  0  0  0  0  0
   -0.1809   -2.6779   -0.0106 H   0  0  0  0  0  0  0  0  0  0  0  0
   -3.2251   -2.3139    0.0204 H   0  0  0  0  0  0  0  0  0  0  0  0
   -5.5065   -7.3199   -2.0495 H   0  0  0  0  0  0  0  0  0  0  0  0
   -7.8240   -8.0746   -1.6001 H   0  0  0  0  0  0  0  0  0  0  0  0
   -8.5210   -8.3097    0.8784 H   0  0  0  0  0  0  0  0  0  0  0  0
  1  2  1  0  0  0  0
  1 17  1  0  0  0  0
  1 18  1  0  0  0  0
  1 19  1  0  0  0  0
  2  3  2  0  0  0  0
  2 20  1  0  0  0  0
  3  4  1  0  0  0  0
  3 21  1  0  0  0  0
  4  5  2  0  0  0  0
  4 22  1  0  0  0  0
  5  6  1  0  0  0  0
  5 23  1  0  0  0  0
  6  7  1  0  0  0  0
  6  8  2  0  0  0  0
  8  9  1  0  0  0  0
  9 10  2  0  0  0  0
  9 11  2  0  0  0  0
  9 12  1  0  0  0  0
 12 16  1  0  0  0  0
 12 13  2  0  0  0  0
 13 14  1  0  0  0  0
 13 24  1  0  0  0  0
 14 15  2  0  0  0  0
 14 25  1  0  0  0  0
 15 16  1  0  0  0  0
 15 26  1  0  0  0  0
M  CHG  1   7  -1
M  END
$$$$
ZINC02991868
 OpenBabel01252620473D

 37 38  0  0  0  0  0  0  0  0999 V2000
    2.6701   -4.7628   -1.8763 C   0  0  0  0  0  0  0  0  0  0  0  0
    1.6569   -3.8743   -1.1517 C   0  0  0  0  0  0  0  0  0  0  0  0
    0.3693   -4.4931   -1.1877 O   0  0  0  0  0  0  0  0  0  0  0  0
   -0.6413   -3.8357   -0.5902 C   0  0  0  0  0  0  0  0  0  0  0  0
   -0.4365   -2.7676   -0.0537 O   0  0  0  0  0  0  0  0  0  0  0  0
   -2.0150   -4.4213   -0.5877 C   0  0  0  0  0  0  0  0  0  0  0  0
   -2.2199   -5.4904   -1.1247 O   0  0  0  0  0  0  0  0  0  0  0  0
   -3.0272   -3.7628    0.0108 N   0  0  0  0  0  0  0  0  0  0  0  0
   -4.3296   -4.2620   -0.0697 C   0  0  0  0  0  0  0  0  0  0  0  0
   -5.4062   -3.3880   -0.1562 C   0  0  0  0  0  0  0  0  0  0  0  0
   -6.6922   -3.8848   -0.2361 C   0  0  0  0  0  0  0  0  0  0  0  0
   -6.9091   -5.2506   -0.2299 C   0  0  0  0  0  0  0  0  0  0  0  0
   -5.8399   -6.1235   -0.1434 C   0  0  0  0  0  0  0  0  0  0  0  0
   -4.5509   -5.6336   -0.0691 C   0  0  0  0  0  0  0  0  0  0  0  0
   -8.5516   -5.8802   -0.3320 S   0  0  0  0  0  0  0  0  0  0  0  0
   -8.5248   -7.1799    0.2419 O   0  0  0  0  0  0  0  0  0  0  0  0
   -9.4103   -4.8539    0.1461 O   0  0  0  0  0  0  0  0  0  0  0  0
   -8.9007   -6.0793   -1.9384 N   0  0  0  0  0  2  0  0  0  0  0  0
  -10.1381   -6.5662   -2.3226 C   0  0  0  0  0  0  0  0  0  0  0  0
  -11.0335   -6.8629   -1.3922 N   0  0  0  0  0  0  0  0  0  0  0  0
  -12.2255   -7.3298   -1.7254 C   0  0  0  0  0  0  0  0  0  0  0  0
  -12.5317   -7.5071   -3.0655 C   0  0  0  0  0  0  0  0  0  0  0  0
  -11.5718   -7.1867   -4.0126 C   0  0  0  0  0  0  0  0  0  0  0  0
  -10.4009   -6.7194   -3.6121 N   0  0  0  0  0  0  0  0  0  0  0  0
    3.6522   -4.2908   -1.8489 H   0  0  0  0  0  0  0  0  0  0  0  0
    2.7197   -5.7337   -1.3835 H   0  0  0  0  0  0  0  0  0  0  0  0
    2.3601   -4.8967   -2.9127 H   0  0  0  0  0  0  0  0  0  0  0  0
    1.9668   -3.7404   -0.1154 H   0  0  0  0  0  0  0  0  0  0  0  0
    1.6072   -2.9033   -1.6445 H   0  0  0  0  0  0  0  0  0  0  0  0
   -2.8515   -2.9422    0.4973 H   0  0  0  0  0  0  0  0  0  0  0  0
   -5.2375   -2.3212   -0.1607 H   0  0  0  0  0  0  0  0  0  0  0  0
   -7.5295   -3.2060   -0.3030 H   0  0  0  0  0  0  0  0  0  0  0  0
   -6.0129   -7.1895   -0.1382 H   0  0  0  0  0  0  0  0  0  0  0  0
   -3.7160   -6.3158   -0.0061 H   0  0  0  0  0  0  0  0  0  0  0  0
  -12.9511   -7.5702   -0.9625 H   0  0  0  0  0  0  0  0  0  0  0  0
  -13.4972   -7.8871   -3.3653 H   0  0  0  0  0  0  0  0  0  0  0  0
  -11.7786   -7.3136   -5.0650 H   0  0  0  0  0  0  0  0  0  0  0  0
  1  2  1  0  0  0  0
  1 25  1  0  0  0  0
  1 26  1  0  0  0  0
  1 27  1  0  0  0  0
  2  3  1  0  0  0  0
  2 28  1  0  0  0  0
  2 29  1  0  0  0  0
  3  4  1  0  0  0  0
  4  5  2  0  0  0  0
  4  6  1  0  0  0  0
  6  7  2  0  0  0  0
  6  8  1  0  0  0  0
  8  9  1  0  0  0  0
  8 30  1  0  0  0  0
  9 14  2  0  0  0  0
  9 10  1  0  0  0  0
 10 11  2  0  0  0  0
 10 31  1  0  0  0  0
 11 12  1  0  0  0  0
 11 32  1  0  0  0  0
 12 13  2  0  0  0  0
 12 15  1  0  0  0  0
 13 14  1  0  0  0  0
 13 33  1  0  0  0  0
 14 34  1  0  0  0  0
 15 16  2  0  0  0  0
 15 17  2  0  0  0  0
 15 18  1  0  0  0  0
 18 19  1  0  0  0  0
 19 24  2  0  0  0  0
 19 20  1  0  0  0  0
 20 21  2  0  0  0  0
 21 22  1  0  0  0  0
 21 35  1  0  0  0  0
 22 23  2  0  0  0  0
 22 36  1  0  0  0  0
 23 24  1  0  0  0  0
 23 37  1  0  0  0  0
M  END
$$$$
ZINC66653923
 OpenBabel01252620473D

 44 45  0  0  0  0  0  0  0  0999 V2000
   -0.0187    1.5258    0.0104 C   0  0  0  0  0  0  0  0  0  0  0  0
    0.0021   -0.0041    0.0020 C   0  0  0  0  0  0  0  0  0  0  0  0
   -1.3386   -0.4987    0.0122 O   0  0  0  0  0  0  0  0  0  0  0  0
   -1.4321   -1.9246    0.0054 C   0  0  0  0  0  0  0  0  0  0  0  0
   -2.8826   -2.3330    0.0171 C   0  0  0  0  0  0  0  0  0  0  0  0
   -3.7509   -1.4863    0.0299 O   0  0  0  0  0  0  0  0  0  0  0  0
   -3.2151   -3.6391    0.0132 N   0  0  0  0  0  0  0  0  0  0  0  0
   -4.5636   -4.0187    0.0241 N   0  0  0  0  0  0  0  0  0  0  0  0
   -4.8960   -5.3248    0.0202 C   0  0  0  0  0  0  0  0  0  0  0  0
   -4.0258   -6.1734    0.0073 O   0  0  0  0  0  0  0  0  0  0  0  0
   -6.3191   -5.7255    0.0316 C   0  0  0  0  0  0  0  0  0  0  0  0
   -7.3210   -4.7534    0.0406 C   0  0  0  0  0  0  0  0  0  0  0  0
   -8.6468   -5.1339    0.0508 C   0  0  0  0  0  0  0  0  0  0  0  0
   -8.9847   -6.4758    0.0521 C   0  0  0  0  0  0  0  0  0  0  0  0
   -7.9967   -7.4441    0.0437 C   0  0  0  0  0  0  0  0  0  0  0  0
   -6.6668   -7.0770    0.0277 C   0  0  0  0  0  0  0  0  0  0  0  0
   -8.4378   -9.1500    0.0467 S   0  0  0  0  0  0  0  0  0  0  0  0
   -7.3293   -9.8552    0.5883 O   0  0  0  0  0  0  0  0  0  0  0  0
   -9.7407   -9.2317    0.6081 O   0  0  0  0  0  0  0  0  0  0  0  0
   -8.5732   -9.6235   -1.5344 N   0  0  0  0  0  2  0  0  0  0  0  0
   -8.9171  -10.9437   -1.8419 C   0  0  0  0  0  0  0  0  0  0  0  0
   -9.1510  -11.8572   -0.8231 C   0  0  0  0  0  0  0  0  0  0  0  0
   -9.4910  -13.1606   -1.1300 C   0  0  0  0  0  0  0  0  0  0  0  0
   -9.5984  -13.5570   -2.4503 C   0  0  0  0  0  0  0  0  0  0  0  0
   -9.3660  -12.6509   -3.4689 C   0  0  0  0  0  0  0  0  0  0  0  0
   -9.0313  -11.3431   -3.1692 C   0  0  0  0  0  0  0  0  0  0  0  0
   -8.8101  -10.4563   -4.1641 F   0  0  0  0  0  0  0  0  0  0  0  0
    1.0039    1.9031    0.0027 H   0  0  0  0  0  0  0  0  0  0  0  0
   -0.5459    1.8868   -0.8726 H   0  0  0  0  0  0  0  0  0  0  0  0
   -0.5289    1.8773    0.9072 H   0  0  0  0  0  0  0  0  0  0  0  0
    0.5123   -0.3556   -0.8948 H   0  0  0  0  0  0  0  0  0  0  0  0
    0.5293   -0.3651    0.8851 H   0  0  0  0  0  0  0  0  0  0  0  0
   -0.9516   -2.3160   -0.8913 H   0  0  0  0  0  0  0  0  0  0  0  0
   -0.9346   -2.3255    0.8885 H   0  0  0  0  0  0  0  0  0  0  0  0
   -2.5206   -4.3163    0.0029 H   0  0  0  0  0  0  0  0  0  0  0  0
   -5.2580   -3.3415    0.0343 H   0  0  0  0  0  0  0  0  0  0  0  0
   -7.0586   -3.7057    0.0399 H   0  0  0  0  0  0  0  0  0  0  0  0
   -9.4229   -4.3829    0.0580 H   0  0  0  0  0  0  0  0  0  0  0  0
  -10.0242   -6.7685    0.0601 H   0  0  0  0  0  0  0  0  0  0  0  0
   -5.8965   -7.8339    0.0163 H   0  0  0  0  0  0  0  0  0  0  0  0
   -9.0668  -11.5493    0.2087 H   0  0  0  0  0  0  0  0  0  0  0  0
   -9.6729  -13.8712   -0.3373 H   0  0  0  0  0  0  0  0  0  0  0  0
   -9.8640  -14.5767   -2.6867 H   0  0  0  0  0  0  0  0  0  0  0  0
   -9.4504  -12.9638   -4.4991 H   0  0  0  0  0  0  0  0  0  0  0  0
  1  2  1  0  0  0  0
  1 28  1  0  0  0  0
  1 29  1  0  0  0  0
  1 30  1  0  0  0  0
  2  3  1  0  0  0  0
  2 31  1  0  0  0  0
  2 32  1  0  0  0  0
  3  4  1  0  0  0  0
  4  5  1  0  0  0  0
  4 33  1  0  0  0  0
  4 34  1  0  0  0  0
  5  6  2  0  0  0  0
  5  7  1  0  0  0  0
  7  8  1  0  0  0  0
  7 35  1  0  0  0  0
  8  9  1  0  0  0  0
  8 36  1  0  0  0  0
  9 10  2  0  0  0  0
  9 11  1  0  0  0  0
 11 16  2  0  0  0  0
 11 12  1  0  0  0  0
 12 13  2  0  0  0  0
 12 37  1  0  0  0  0
 13 14  1  0  0  0  0
 13 38  1  0  0  0  0
 14 15  2  0  0  0  0
 14 39  1  0  0  0  0
 15 16  1  0  0  0  0
 15 17  1  0  0  0  0
 16 40  1  0  0  0  0
 17 18  2  0  0  0  0
 17 19  2  0  0  0  0
 17 20  1  0  0  0  0
 20 21  1  0  0  0  0
 21 26  2  0  0  0  0
 21 22  1  0  0  0  0
 22 23  2  0  0  0  0
 22 41  1  0  0  0  0
 23 24  1  0  0  0  0
 23 42  1  0  0  0  0
 24 25  2  0  0  0  0
 24 43  1  0  0  0  0
 25 26  1  0  0  0  0
 25 44  1  0  0  0  0
 26 27  1  0  0  0  0
M  END
$$$$
ZINC65246951
 OpenBabel01252620473D

 47 50  0  0  1  0  0  0  0  0999 V2000
   -0.0473    1.5274    0.0373 C   0  0  0  0  0  0  0  0  0  0  0  0
   -0.0138   -0.0021    0.0166 C   0  0  2  0  0  0  0  0  0  0  0  0
    0.4959   -0.3516   -0.8812 H   0  0  0  0  0  0  0  0  0  0  0  0
   -1.3825   -0.5358    0.0580 N   0  0  0  0  0  0  0  0  0  0  0  0
   -1.7209   -1.4974    0.7368 N   0  0  0  0  0  0  0  0  0  0  0  0
   -0.9385   -2.2262    1.5516 C   0  0  0  0  0  0  0  0  0  0  0  0
   -1.4135   -3.1069    2.2287 O   0  0  0  0  0  0  0  0  0  0  0  0
    0.5411   -1.9306    1.6107 C   0  0  1  0  0  0  0  0  0  0  0  0
    1.1146   -2.5923    0.9617 H   0  0  0  0  0  0  0  0  0  0  0  0
    0.6734   -0.5062    1.2134 N   0  0  0  0  0  0  0  0  0  0  0  0
    1.4336    0.1534    2.1421 C   0  0  0  0  0  0  0  0  0  0  0  0
    1.6851   -0.5626    3.2169 C   0  0  0  0  0  0  0  0  0  0  0  0
    1.0612   -1.9497    3.0547 C   0  0  0  0  0  0  0  0  0  0  0  0
    2.5981   -0.0138    4.6204 S   0  0  0  0  0  0  0  0  0  0  0  0
    2.8119    1.3802    4.4461 O   0  0  0  0  0  0  0  0  0  0  0  0
    1.9447   -0.5472    5.7639 O   0  0  0  0  0  0  0  0  0  0  0  0
    4.0877   -0.7338    4.5476 N   0  0  0  0  0  2  0  0  0  0  0  0
    5.0374   -0.4797    5.5443 C   0  0  0  0  0  0  0  0  0  0  0  0
    4.7285    0.3717    6.5969 C   0  0  0  0  0  0  0  0  0  0  0  0
    5.6655    0.6227    7.5798 C   0  0  0  0  0  0  0  0  0  0  0  0
    6.9164    0.0234    7.5157 C   0  0  0  0  0  0  0  0  0  0  0  0
    7.2252   -0.8283    6.4633 C   0  0  0  0  0  0  0  0  0  0  0  0
    6.2864   -1.0834    5.4832 C   0  0  0  0  0  0  0  0  0  0  0  0
    7.8665    0.2782    8.5119 N   0  0  0  0  0  0  0  0  0  0  0  0
    9.1542   -0.4339    8.5306 C   0  0  0  0  0  0  0  0  0  0  0  0
   10.2774    0.6015    8.6577 C   0  0  0  0  0  0  0  0  0  0  0  0
   10.0074    1.4545    9.7728 O   0  0  0  0  0  0  0  0  0  0  0  0
    8.8059    2.2190    9.6474 C   0  0  0  0  0  0  0  0  0  0  0  0
    7.6095    1.2705    9.5677 C   0  0  0  0  0  0  0  0  0  0  0  0
    0.9720    1.9133    0.0305 H   0  0  0  0  0  0  0  0  0  0  0  0
   -0.5794    1.8911   -0.8417 H   0  0  0  0  0  0  0  0  0  0  0  0
   -0.5585    1.8675    0.9380 H   0  0  0  0  0  0  0  0  0  0  0  0
    1.7924    1.1629    2.0053 H   0  0  0  0  0  0  0  0  0  0  0  0
    0.2389   -2.0911    3.7561 H   0  0  0  0  0  0  0  0  0  0  0  0
    1.8120   -2.7297    3.1810 H   0  0  0  0  0  0  0  0  0  0  0  0
    3.7555    0.8377    6.6467 H   0  0  0  0  0  0  0  0  0  0  0  0
    5.4254    1.2853    8.3981 H   0  0  0  0  0  0  0  0  0  0  0  0
    8.1982   -1.2944    6.4135 H   0  0  0  0  0  0  0  0  0  0  0  0
    6.5252   -1.7489    4.6669 H   0  0  0  0  0  0  0  0  0  0  0  0
    9.1847   -1.1149    9.3810 H   0  0  0  0  0  0  0  0  0  0  0  0
    9.2762   -0.9961    7.6048 H   0  0  0  0  0  0  0  0  0  0  0  0
   11.2278    0.0906    8.8119 H   0  0  0  0  0  0  0  0  0  0  0  0
   10.3275    1.1981    7.7468 H   0  0  0  0  0  0  0  0  0  0  0  0
    8.6976    2.8716   10.5136 H   0  0  0  0  0  0  0  0  0  0  0  0
    8.8506    2.8214    8.7401 H   0  0  0  0  0  0  0  0  0  0  0  0
    6.7092    1.8363    9.3284 H   0  0  0  0  0  0  0  0  0  0  0  0
    7.4819    0.7639   10.5244 H   0  0  0  0  0  0  0  0  0  0  0  0
  1  2  1  0  0  0  0
  1 30  1  0  0  0  0
  1 31  1  0  0  0  0
  1 32  1  0  0  0  0
  2  3  1  6  0  0  0
  2 10  1  0  0  0  0
  2  4  1  0  0  0  0
  4  5  2  0  0  0  0
  5  6  1  0  0  0  0
  6  7  2  0  0  0  0
  6  8  1  0  0  0  0
  8  9  1  6  0  0  0
  8 13  1  0  0  0  0
  8 10  1  0  0  0  0
 10 11  1  0  0  0  0
 11 12  2  0  0  0  0
 11 33  1  0  0  0  0
 12 13  1  0  0  0  0
 12 14  1  0  0  0  0
 13 34  1  0  0  0  0
 13 35  1  0  0  0  0
 14 15  2  0  0  0  0
 14 16  2  0  0  0  0
 14 17  1  0  0  0  0
 17 18  1  0  0  0  0
 18 23  2  0  0  0  0
 18 19  1  0  0  0  0
 19 20  2  0  0  0  0
 19 36  1  0  0  0  0
 20 21  1  0  0  0  0
 20 37  1  0  0  0  0
 21 22  2  0  0  0  0
 21 24  1  0  0  0  0
 22 23  1  0  0  0  0
 22 38  1  0  0  0  0
 23 39  1  0  0  0  0
 24 29  1  0  0  0  0
 24 25  1  0  0  0  0
 25 26  1  0  0  0  0
 25 40  1  0  0  0  0
 25 41  1  0  0  0  0
 26 27  1  0  0  0  0
 26 42  1  0  0  0  0
 26 43  1  0  0  0  0
 27 28  1  0  0  0  0
 28 29  1  0  0  0  0
 28 44  1  0  0  0  0
 28 45  1  0  0  0  0
 29 46  1  0  0  0  0
 29 47  1  0  0  0  0
M  END
$$$$
ZINC63096311
 OpenBabel01252620473D

 28 28  0  0  1  0  0  0  0  0999 V2000
    0.3497    1.2190   -0.1379 C   0  0  0  0  0  0  0  0  0  0  0  0
    0.0742   -0.2800   -0.0044 C   0  0  1  0  0  0  0  0  0  0  0  0
    0.5166   -0.8074   -0.8496 H   0  0  0  0  0  0  0  0  0  0  0  0
    0.6886   -0.7975    1.2978 C   0  0  0  0  0  0  0  0  0  0  0  0
    0.5285   -2.2590    1.3691 C   0  0  0  0  0  0  0  0  0  0  0  0
    0.4050   -3.3869    1.4241 N   0  0  0  0  0  0  0  0  0  0  0  0
   -1.3723   -0.5112    0.0124 N   0  0  0  0  0  0  0  0  0  0  0  0
   -2.1988    0.0952    1.0591 C   0  0  0  0  0  0  0  0  0  0  0  0
   -1.9580   -1.3022   -0.9604 C   0  0  0  0  0  0  0  0  0  0  0  0
   -2.5180   -0.7026   -2.0894 C   0  0  0  0  0  0  0  0  0  0  0  0
   -3.0964   -1.4880   -3.0494 C   0  0  0  0  0  0  0  0  0  0  0  0
   -3.1046   -2.8805   -2.8603 C   0  0  0  0  0  0  0  0  0  0  0  0
   -2.5251   -3.4113   -1.7051 C   0  0  0  0  0  0  0  0  0  0  0  0
   -1.9744   -2.6196   -0.8091 N   0  0  0  0  0  0  0  0  0  0  0  0
   -3.7151   -3.7667   -3.8642 C   0  0  0  0  0  0  0  0  0  0  0  0
   -4.2204   -3.2924   -4.8724 O   0  0  0  0  0  0  0  0  0  0  0  0
   -3.7172   -4.9778   -3.6905 O   0  0  0  0  0  1  0  0  0  0  0  0
   -2.4817    1.0232   -2.2739 Cl  0  0  0  0  0  0  0  0  0  0  0  0
    1.4260    1.3910   -0.1505 H   0  0  0  0  0  0  0  0  0  0  0  0
   -0.0880    1.5876   -1.0657 H   0  0  0  0  0  0  0  0  0  0  0  0
   -0.0927    1.7464    0.7072 H   0  0  0  0  0  0  0  0  0  0  0  0
    1.7489   -0.5463    1.3242 H   0  0  0  0  0  0  0  0  0  0  0  0
    0.1844   -0.3349    2.1463 H   0  0  0  0  0  0  0  0  0  0  0  0
   -2.4668    1.1107    0.7677 H   0  0  0  0  0  0  0  0  0  0  0  0
   -3.1051   -0.4953    1.1940 H   0  0  0  0  0  0  0  0  0  0  0  0
   -1.6395    0.1211    1.9943 H   0  0  0  0  0  0  0  0  0  0  0  0
   -3.5367   -1.0477   -3.9319 H   0  0  0  0  0  0  0  0  0  0  0  0
   -2.5250   -4.4798   -1.5481 H   0  0  0  0  0  0  0  0  0  0  0  0
  1  2  1  0  0  0  0
  1 19  1  0  0  0  0
  1 20  1  0  0  0  0
  1 21  1  0  0  0  0
  2  3  1  6  0  0  0
  2  4  1  0  0  0  0
  2  7  1  0  0  0  0
  4  5  1  0  0  0  0
  4 22  1  0  0  0  0
  4 23  1  0  0  0  0
  5  6  3  0  0  0  0
  7  8  1  0  0  0  0
  7  9  1  0  0  0  0
  8 24  1  0  0  0  0
  8 25  1  0  0  0  0
  8 26  1  0  0  0  0
  9 14  2  0  0  0  0
  9 10  1  0  0  0  0
 10 11  2  0  0  0  0
 10 18  1  0  0  0  0
 11 12  1  0  0  0  0
 11 27  1  0  0  0  0
 12 13  2  0  0  0  0
 12 15  1  0  0  0  0
 13 14  1  0  0  0  0
 13 28  1  0  0  0  0
 15 16  2  0  0  0  0
 15 17  1  0  0  0  0
M  END
$$$$
ZINC13450951
 OpenBabel01252620473D

 26 27  0  0  0  0  0  0  0  0999 V2000
   -0.0169    1.3940    0.0097 C   0  0  0  0  0  0  0  0  0  0  0  0
    1.1928    2.0684    0.0018 C   0  0  0  0  0  0  0  0  0  0  0  0
    2.3782    1.3370   -0.0130 C   0  0  0  0  0  0  0  0  0  0  0  0
    2.3591    0.0094   -0.0200 N   0  0  0  0  0  0  0  0  0  0  0  0
    1.2327   -0.6667   -0.0133 C   0  0  0  0  0  0  0  0  0  0  0  0
    0.0021   -0.0041    0.0020 C   0  0  0  0  0  0  0  0  0  0  0  0
   -1.2635   -0.7717    0.0095 C   0  0  0  0  0  0  0  0  0  0  0  0
   -2.3288   -0.1870    0.0224 O   0  5  0  0  0  0  0  0  0  0  0  0
   -1.2344   -2.1191    0.0020 N   0  0  0  0  0  0  0  0  0  0  0  0
   -2.6502   -2.9780    0.0103 S   0  0  0  0  0  0  0  0  0  0  0  0
   -2.2917   -4.3525   -0.0274 O   0  0  0  0  0  0  0  0  0  0  0  0
   -3.4526   -2.4281    1.0462 O   0  0  0  0  0  0  0  0  0  0  0  0
   -3.4785   -2.6317   -1.5058 C   0  0  0  0  0  0  0  0  0  0  0  0
   -3.3889   -3.2775   -2.6937 C   0  0  0  0  0  0  0  0  0  0  0  0
   -4.1412   -2.8247   -3.7619 C   0  0  0  0  0  0  0  0  0  0  0  0
   -4.9468   -1.7472   -3.5881 C   0  0  0  0  0  0  0  0  0  0  0  0
   -4.6593   -1.3440   -1.8729 S   0  0  0  0  0  0  0  0  0  0  0  0
   -5.9917   -0.9672   -4.7342 Cl  0  0  0  0  0  0  0  0  0  0  0  0
    3.6779    2.0501   -0.0216 C   0  0  0  0  0  0  0  0  0  0  0  0
    3.7044    3.2638   -0.0153 O   0  0  0  0  0  0  0  0  0  0  0  0
    4.8290    1.3515   -0.0363 O   0  0  0  0  0  1  0  0  0  0  0  0
   -0.9518    1.9347    0.0171 H   0  0  0  0  0  0  0  0  0  0  0  0
    1.2168    3.1481    0.0070 H   0  0  0  0  0  0  0  0  0  0  0  0
    1.2579   -1.7464   -0.0193 H   0  0  0  0  0  0  0  0  0  0  0  0
   -2.7391   -4.1330   -2.8047 H   0  0  0  0  0  0  0  0  0  0  0  0
   -4.0881   -3.3210   -4.7196 H   0  0  0  0  0  0  0  0  0  0  0  0
  1  6  2  0  0  0  0
  1  2  1  0  0  0  0
  1 22  1  0  0  0  0
  2  3  2  0  0  0  0
  2 23  1  0  0  0  0
  3  4  1  0  0  0  0
  3 19  1  0  0  0  0
  4  5  2  0  0  0  0
  5  6  1  0  0  0  0
  5 24  1  0  0  0  0
  6  7  1  0  0  0  0
  7  8  1  0  0  0  0
  7  9  2  0  0  0  0
  9 10  1  0  0  0  0
 10 11  2  0  0  0  0
 10 12  2  0  0  0  0
 10 13  1  0  0  0  0
 13 17  1  0  0  0  0
 13 14  2  0  0  0  0
 14 15  1  0  0  0  0
 14 25  1  0  0  0  0
 15 16  2  0  0  0  0
 15 26  1  0  0  0  0
 16 17  1  0  0  0  0
 16 18  1  0  0  0  0
 19 20  2  0  0  0  0
 19 21  1  0  0  0  0
M  CHG  1   8  -1
M  END
$$$$
ZINC38063423
 OpenBabel01252620473D

 20 20  0  0  0  0  0  0  0  0999 V2000
   -0.0225    1.8097    0.0120 C   0  0  0  0  0  0  0  0  0  0  0  0
    0.0021   -0.0041    0.0020 S   0  0  0  0  0  0  0  0  0  0  0  0
    0.7981   -0.4488    1.0919 O   0  0  0  0  0  0  0  0  0  0  0  0
   -1.3351   -0.4711   -0.1129 O   0  0  0  0  0  0  0  0  0  0  0  0
    0.8774   -0.3845   -1.5406 C   0  0  0  0  0  0  0  0  0  0  0  0
    0.9842   -1.8790   -1.7022 C   0  0  0  0  0  0  0  0  0  0  0  0
    0.0787   -2.6816   -2.3376 C   0  0  0  0  0  0  0  0  0  0  0  0
    0.6190   -4.0461   -2.2328 C   0  0  0  0  0  0  0  0  0  0  0  0
    1.7729   -3.9345   -1.5586 C   0  0  0  0  0  0  0  0  0  0  0  0
    1.9827   -2.6441   -1.2538 O   0  0  0  0  0  0  0  0  0  0  0  0
   -1.1724   -2.2684   -2.9885 C   0  0  0  0  0  0  0  0  0  0  0  0
   -1.8897   -3.1042   -3.5217 O   0  0  0  0  0  0  0  0  0  0  0  0
   -1.4969   -1.0885   -2.9973 O   0  0  0  0  0  1  0  0  0  0  0  0
    1.0001    2.1870    0.0043 H   0  0  0  0  0  0  0  0  0  0  0  0
   -0.5497    2.1708   -0.8711 H   0  0  0  0  0  0  0  0  0  0  0  0
   -0.5327    2.1613    0.9088 H   0  0  0  0  0  0  0  0  0  0  0  0
    0.3268    0.0336   -2.3834 H   0  0  0  0  0  0  0  0  0  0  0  0
    1.8766    0.0498   -1.5080 H   0  0  0  0  0  0  0  0  0  0  0  0
    0.1767   -4.9522   -2.6196 H   0  0  0  0  0  0  0  0  0  0  0  0
    2.4309   -4.7524   -1.3047 H   0  0  0  0  0  0  0  0  0  0  0  0
  1  2  1  0  0  0  0
  1 14  1  0  0  0  0
  1 15  1  0  0  0  0
  1 16  1  0  0  0  0
  2  3  2  0  0  0  0
  2  4  2  0  0  0  0
  2  5  1  0  0  0  0
  5  6  1  0  0  0  0
  5 17  1  0  0  0  0
  5 18  1  0  0  0  0
  6 10  1  0  0  0  0
  6  7  2  0  0  0  0
  7  8  1  0  0  0  0
  7 11  1  0  0  0  0
  8  9  2  0  0  0  0
  8 19  1  0  0  0  0
  9 10  1  0  0  0  0
  9 20  1  0  0  0  0
 11 12  2  0  0  0  0
 11 13  1  0  0  0  0
M  END
$$$$
ZINC02034589
 OpenBabel01252620473D

 13 12  0  0  0  0  0  0  0  0999 V2000
   -0.0157    1.3058    0.0092 C   0  0  0  0  0  0  0  0  0  0  0  0
    0.0021   -0.0041    0.0020 C   0  0  0  0  0  0  0  0  0  0  0  0
   -1.2926   -0.7753    0.0102 C   0  0  0  0  0  0  0  0  0  0  0  0
   -1.3187   -1.7407   -1.1764 C   0  0  0  0  0  0  0  0  0  0  0  0
   -2.5833   -2.4940   -1.1684 C   0  0  0  0  0  0  0  0  0  0  0  0
   -3.5593   -3.0753   -1.1622 N   0  0  0  0  0  0  0  0  0  0  0  0
    0.9122    1.8585    0.0033 H   0  0  0  0  0  0  0  0  0  0  0  0
   -0.9582    1.8330    0.0166 H   0  0  0  0  0  0  0  0  0  0  0  0
    0.9446   -0.5313   -0.0098 H   0  0  0  0  0  0  0  0  0  0  0  0
   -1.3737   -1.3393    0.9394 H   0  0  0  0  0  0  0  0  0  0  0  0
   -2.1295   -0.0812   -0.0676 H   0  0  0  0  0  0  0  0  0  0  0  0
   -1.2377   -1.1767   -2.1056 H   0  0  0  0  0  0  0  0  0  0  0  0
   -0.4819   -2.4348   -1.0985 H   0  0  0  0  0  0  0  0  0  0  0  0
  1  2  2  0  0  0  0
  1  7  1  0  0  0  0
  1  8  1  0  0  0  0
  2  3  1  0  0  0  0
  2  9  1  0  0  0  0
  3  4  1  0  0  0  0
  3 10  1  0  0  0  0
  3 11  1  0  0  0  0
  4  5  1  0  0  0  0
  4 12  1  0  0  0  0
  4 13  1  0  0  0  0
  5  6  3  0  0  0  0
M  END
$$$$
ZINC35567599
 OpenBabel01252620473D

 54 57  0  0  1  0  0  0  0  0999 V2000
    0.7438    1.3654    0.0450 C   0  0  0  0  0  0  0  0  0  0  0  0
    0.3662   -0.0934    0.0276 C   0  0  0  0  0  0  0  0  0  0  0  0
    0.2640   -0.7668   -1.1743 C   0  0  0  0  0  0  0  0  0  0  0  0
   -0.0825   -2.1052   -1.1910 C   0  0  0  0  0  0  0  0  0  0  0  0
   -0.3276   -2.7731   -0.0054 C   0  0  0  0  0  0  0  0  0  0  0  0
   -0.2268   -2.1043    1.1991 C   0  0  0  0  0  0  0  0  0  0  0  0
    0.1263   -0.7628    1.2189 C   0  0  0  0  0  0  0  0  0  0  0  0
    0.2320   -0.1041    2.4029 O   0  0  0  0  0  0  0  0  0  0  0  0
   -0.4941   -2.8328    2.4909 C   0  0  0  0  0  0  0  0  0  0  0  0
   -0.1937   -2.8372   -2.5036 C   0  0  2  0  0  0  0  0  0  0  0  0
    0.1502   -2.1997   -3.3182 H   0  0  0  0  0  0  0  0  0  0  0  0
   -1.6242   -3.2601   -2.7431 C   0  0  0  0  0  0  0  0  0  0  0  0
   -1.6237   -4.6101   -2.8250 C   0  0  0  0  0  0  0  0  0  0  0  0
   -0.2442   -5.1072   -2.6490 C   0  0  0  0  0  0  0  0  0  0  0  0
    0.0836   -6.2770   -2.6715 O   0  0  0  0  0  0  0  0  0  0  0  0
    0.5974   -4.0727   -2.4611 N   0  0  0  0  0  0  0  0  0  0  0  0
    2.0445   -4.1634   -2.2517 C   0  0  0  0  0  0  0  0  0  0  0  0
    2.3324   -4.2797   -0.7770 C   0  0  0  0  0  0  0  0  0  0  0  0
    2.5237   -3.1422   -0.0072 C   0  0  0  0  0  0  0  0  0  0  0  0
    2.7860   -3.2973    1.3452 C   0  0  0  0  0  0  0  0  0  0  0  0
    2.8478   -4.5715    1.8775 C   0  0  0  0  0  0  0  0  0  0  0  0
    2.6610   -5.6308    1.1150 N   0  0  0  0  0  0  0  0  0  0  0  0
    2.4034   -5.5208   -0.1738 C   0  0  0  0  0  0  0  0  0  0  0  0
   -2.7150   -5.3832   -3.0347 O   0  5  0  0  0  0  0  0  0  0  0  0
   -2.7900   -2.3762   -2.8633 C   0  0  0  0  0  0  0  0  0  0  0  0
   -3.6705   -2.4117   -2.0222 O   0  0  0  0  0  0  0  0  0  0  0  0
   -2.8947   -1.4506   -3.9959 C   0  0  0  0  0  0  0  0  0  0  0  0
   -3.9365   -0.6053   -4.3599 C   0  0  0  0  0  0  0  0  0  0  0  0
   -3.7468    0.1171   -5.4353 N   0  0  0  0  0  0  0  0  0  0  0  0
   -2.6333    0.0446   -6.1287 C   0  0  0  0  0  0  0  0  0  0  0  0
   -1.7161   -1.0888   -5.2881 S   0  0  0  0  0  0  0  0  0  0  0  0
   -2.2624    0.8019   -7.3777 C   0  0  0  0  0  0  0  0  0  0  0  0
   -5.2125   -0.5254   -3.5622 C   0  0  0  0  0  0  0  0  0  0  0  0
    1.8190    1.4605    0.1966 H   0  0  0  0  0  0  0  0  0  0  0  0
    0.4689    1.8232   -0.9052 H   0  0  0  0  0  0  0  0  0  0  0  0
    0.2167    1.8675    0.8563 H   0  0  0  0  0  0  0  0  0  0  0  0
    0.4547   -0.2472   -2.1017 H   0  0  0  0  0  0  0  0  0  0  0  0
   -0.5984   -3.8185   -0.0211 H   0  0  0  0  0  0  0  0  0  0  0  0
   -0.5911    0.3085    2.6983 H   0  0  0  0  0  0  0  0  0  0  0  0
    0.4344   -3.2663    2.8625 H   0  0  0  0  0  0  0  0  0  0  0  0
   -0.8888   -2.1332    3.2277 H   0  0  0  0  0  0  0  0  0  0  0  0
   -1.2214   -3.6259    2.3170 H   0  0  0  0  0  0  0  0  0  0  0  0
    2.4320   -5.0417   -2.7679 H   0  0  0  0  0  0  0  0  0  0  0  0
    2.5256   -3.2684   -2.6463 H   0  0  0  0  0  0  0  0  0  0  0  0
    2.4699   -2.1590   -0.4507 H   0  0  0  0  0  0  0  0  0  0  0  0
    2.9406   -2.4335    1.9748 H   0  0  0  0  0  0  0  0  0  0  0  0
    3.0517   -4.7008    2.9302 H   0  0  0  0  0  0  0  0  0  0  0  0
    2.2508   -6.4114   -0.7655 H   0  0  0  0  0  0  0  0  0  0  0  0
   -1.6882    1.6883   -7.1081 H   0  0  0  0  0  0  0  0  0  0  0  0
   -1.6618    0.1630   -8.0251 H   0  0  0  0  0  0  0  0  0  0  0  0
   -3.1689    1.1021   -7.9032 H   0  0  0  0  0  0  0  0  0  0  0  0
   -5.1138    0.2424   -2.7948 H   0  0  0  0  0  0  0  0  0  0  0  0
   -6.0401   -0.2724   -4.2249 H   0  0  0  0  0  0  0  0  0  0  0  0
   -5.4066   -1.4883   -3.0898 H   0  0  0  0  0  0  0  0  0  0  0  0
  1  2  1  0  0  0  0
  1 34  1  0  0  0  0
  1 35  1  0  0  0  0
  1 36  1  0  0  0  0
  2  7  2  0  0  0  0
  2  3  1  0  0  0  0
  3  4  2  0  0  0  0
  3 37  1  0  0  0  0
  4  5  1  0  0  0  0
  4 10  1  0  0  0  0
  5  6  2  0  0  0  0
  5 38  1  0  0  0  0
  6  7  1  0  0  0  0
  6  9  1  0  0  0  0
  7  8  1  0  0  0  0
  8 39  1  0  0  0  0
  9 40  1  0  0  0  0
  9 41  1  0  0  0  0
  9 42  1  0  0  0  0
 10 11  1  6  0  0  0
 10 16  1  0  0  0  0
 10 12  1  0  0  0  0
 12 13  2  0  0  0  0
 12 25  1  0  0  0  0
 13 14  1  0  0  0  0
 13 24  1  0  0  0  0
 14 15  2  0  0  0  0
 14 16  1  0  0  0  0
 16 17  1  0  0  0  0
 17 18  1  0  0  0  0
 17 43  1  0  0  0  0
 17 44  1  0  0  0  0
 18 23  2  0  0  0  0
 18 19  1  0  0  0  0
 19 20  2  0  0  0  0
 19 45  1  0  0  0  0
 20 21  1  0  0  0  0
 20 46  1  0  0  0  0
 21 22  2  0  0  0  0
 21 47  1  0  0  0  0
 22 23  1  0  0  0  0
 23 48  1  0  0  0  0
 25 26  2  0  0  0  0
 25 27  1  0  0  0  0
 27 31  1  0  0  0  0
 27 28  2  0  0  0  0
 28 29  1  0  0  0  0
 28 33  1  0  0  0  0
 29 30  2  0  0  0  0
 30 31  1  0  0  0  0
 30 32  1  0  0  0  0
 32 49  1  0  0  0  0
 32 50  1  0  0  0  0
 32 51  1  0  0  0  0
 33 52  1  0  0  0  0
 33 53  1  0  0  0  0
 33 54  1  0  0  0  0
M  CHG  1  24  -1
M  END
$$$$
ZINC28668155
 OpenBabel01252620473D

 39 41  0  0  0  0  0  0  0  0999 V2000
   -0.0160    1.3731    0.0293 C   0  0  0  0  0  0  0  0  0  0  0  0
    1.1706    2.0896    0.0235 C   0  0  0  0  0  0  0  0  0  0  0  0
    2.3835    1.4325    0.0033 C   0  0  0  0  0  0  0  0  0  0  0  0
    2.4226    0.0436   -0.0116 C   0  0  0  0  0  0  0  0  0  0  0  0
    1.2229   -0.6849   -0.0053 C   0  0  0  0  0  0  0  0  0  0  0  0
    0.0025   -0.0042    0.0153 C   0  0  0  0  0  0  0  0  0  0  0  0
    1.2499   -2.1585   -0.0213 C   0  0  0  0  0  0  0  0  0  0  0  0
    2.3140   -2.7469   -0.0400 O   0  0  0  0  0  0  0  0  0  0  0  0
    0.0954   -2.8538   -0.0152 N   0  0  0  0  0  0  0  0  0  0  0  0
    0.1177   -4.2435   -0.1291 C   0  0  0  0  0  0  0  0  0  0  0  0
    1.1428   -4.9920    0.4479 C   0  0  0  0  0  0  0  0  0  0  0  0
    1.1281   -6.3647    0.3128 C   0  0  0  0  0  0  0  0  0  0  0  0
    0.1613   -6.9688   -0.3520 N   0  0  0  0  0  0  0  0  0  0  0  0
   -0.8260   -6.2957   -0.9122 C   0  0  0  0  0  0  0  0  0  0  0  0
   -0.8874   -4.9209   -0.8179 C   0  0  0  0  0  0  0  0  0  0  0  0
    3.6423   -0.6201   -0.0329 N   0  0  0  0  0  2  0  0  0  0  0  0
    5.0551    0.2437   -0.0408 S   0  0  0  0  0  0  0  0  0  0  0  0
    5.0995    0.9384   -1.2796 O   0  0  0  0  0  0  0  0  0  0  0  0
    5.1291    0.9126    1.2107 O   0  0  0  0  0  0  0  0  0  0  0  0
    6.3774   -0.9205   -0.0685 C   0  0  0  0  0  0  0  0  0  0  0  0
    6.9062   -1.3935    1.1180 C   0  0  0  0  0  0  0  0  0  0  0  0
    7.9430   -2.3070    1.0975 C   0  0  0  0  0  0  0  0  0  0  0  0
    8.4522   -2.7484   -0.1121 C   0  0  0  0  0  0  0  0  0  0  0  0
    7.9218   -2.2739   -1.2998 C   0  0  0  0  0  0  0  0  0  0  0  0
    6.8815   -1.3644   -1.2768 C   0  0  0  0  0  0  0  0  0  0  0  0
    9.4661   -3.6410   -0.1333 F   0  0  0  0  0  0  0  0  0  0  0  0
   -0.9599    1.8974    0.0494 H   0  0  0  0  0  0  0  0  0  0  0  0
    1.1454    3.1693    0.0346 H   0  0  0  0  0  0  0  0  0  0  0  0
    3.3035    1.9982   -0.0015 H   0  0  0  0  0  0  0  0  0  0  0  0
   -0.9250   -0.5573    0.0203 H   0  0  0  0  0  0  0  0  0  0  0  0
   -0.7511   -2.3876    0.0684 H   0  0  0  0  0  0  0  0  0  0  0  0
    1.9373   -4.5038    0.9927 H   0  0  0  0  0  0  0  0  0  0  0  0
    1.9181   -6.9525    0.7565 H   0  0  0  0  0  0  0  0  0  0  0  0
   -1.5977   -6.8284   -1.4480 H   0  0  0  0  0  0  0  0  0  0  0  0
   -1.7005   -4.3765   -1.2751 H   0  0  0  0  0  0  0  0  0  0  0  0
    6.5090   -1.0488    2.0613 H   0  0  0  0  0  0  0  0  0  0  0  0
    8.3562   -2.6761    2.0245 H   0  0  0  0  0  0  0  0  0  0  0  0
    8.3185   -2.6172   -2.2438 H   0  0  0  0  0  0  0  0  0  0  0  0
    6.4647   -0.9976   -2.2031 H   0  0  0  0  0  0  0  0  0  0  0  0
  1  6  2  0  0  0  0
  1  2  1  0  0  0  0
  1 27  1  0  0  0  0
  2  3  2  0  0  0  0
  2 28  1  0  0  0  0
  3  4  1  0  0  0  0
  3 29  1  0  0  0  0
  4  5  2  0  0  0  0
  4 16  1  0  0  0  0
  5  6  1  0  0  0  0
  5  7  1  0  0  0  0
  6 30  1  0  0  0  0
  7  8  2  0  0  0  0
  7  9  1  0  0  0  0
  9 10  1  0  0  0  0
  9 31  1  0  0  0  0
 10 15  2  0  0  0  0
 10 11  1  0  0  0  0
 11 12  2  0  0  0  0
 11 32  1  0  0  0  0
 12 13  1  0  0  0  0
 12 33  1  0  0  0  0
 13 14  2  0  0  0  0
 14 15  1  0  0  0  0
 14 34  1  0  0  0  0
 15 35  1  0  0  0  0
 16 17  1  0  0  0  0
 17 18  2  0  0  0  0
 17 19  2  0  0  0  0
 17 20  1  0  0  0  0
 20 25  2  0  0  0  0
 20 21  1  0  0  0  0
 21 22  2  0  0  0  0
 21 36  1  0  0  0  0
 22 23  1  0  0  0  0
 22 37  1  0  0  0  0
 23 24  2  0  0  0  0
 23 26  1  0  0  0  0
 24 25  1  0  0  0  0
 24 38  1  0  0  0  0
 25 39  1  0  0  0  0
M  END
$$$$
ZINC40052571
 OpenBabel01252620473D

 67 69  0  0  1  0  0  0  0  0999 V2000
    0.8577    1.4710   -0.6197 C   0  0  0  0  0  0  0  0  0  0  0  0
    0.7094   -0.0490   -0.5274 C   0  0  0  0  0  0  0  0  0  0  0  0
    1.4497   -0.5326    0.5951 O   0  0  0  0  0  0  0  0  0  0  0  0
    1.4994   -1.8806    0.7676 C   0  0  0  0  0  0  0  0  0  0  0  0
    0.9397   -2.7229   -0.1797 C   0  0  0  0  0  0  0  0  0  0  0  0
    0.9914   -4.0930   -0.0031 C   0  0  0  0  0  0  0  0  0  0  0  0
    1.6005   -4.6261    1.1177 C   0  0  0  0  0  0  0  0  0  0  0  0
    2.1605   -3.7914    2.0668 C   0  0  0  0  0  0  0  0  0  0  0  0
    2.1175   -2.4173    1.8929 C   0  0  0  0  0  0  0  0  0  0  0  0
    2.6732   -1.5950    2.8226 O   0  0  0  0  0  0  0  0  0  0  0  0
    0.3822   -5.0075   -1.0344 C   0  0  2  0  0  0  0  0  0  0  0  0
    0.1087   -4.4396   -1.9236 H   0  0  0  0  0  0  0  0  0  0  0  0
   -0.8352   -5.6965   -0.4633 C   0  0  0  0  0  0  0  0  0  0  0  0
   -0.5832   -7.0257   -0.4965 C   0  0  0  0  0  0  0  0  0  0  0  0
    0.7602   -7.2511   -1.0699 C   0  0  0  0  0  0  0  0  0  0  0  0
    1.2752   -8.3394   -1.2326 O   0  0  0  0  0  0  0  0  0  0  0  0
    1.3288   -6.0722   -1.3869 N   0  0  0  0  0  0  0  0  0  0  0  0
    2.6561   -5.8847   -1.9780 C   0  0  0  0  0  0  0  0  0  0  0  0
    3.6952   -5.7434   -0.8640 C   0  0  0  0  0  0  0  0  0  0  0  0
    5.0814   -5.5477   -1.4813 C   0  0  0  0  0  0  0  0  0  0  0  0
    6.0519   -5.4157   -0.4408 O   0  0  0  0  0  0  0  0  0  0  0  0
   -1.4270   -7.9944   -0.0719 O   0  5  0  0  0  0  0  0  0  0  0  0
   -2.0546   -5.0496    0.0316 C   0  0  0  0  0  0  0  0  0  0  0  0
   -2.3421   -5.1155    1.2123 O   0  0  0  0  0  0  0  0  0  0  0  0
   -2.9333   -4.3186   -0.9023 C   0  0  0  0  0  0  0  0  0  0  0  0
   -2.6741   -4.3465   -2.2763 C   0  0  0  0  0  0  0  0  0  0  0  0
   -3.4959   -3.6634   -3.1437 C   0  0  0  0  0  0  0  0  0  0  0  0
   -4.5828   -2.9462   -2.6556 C   0  0  0  0  0  0  0  0  0  0  0  0
   -4.8439   -2.9155   -1.2903 C   0  0  0  0  0  0  0  0  0  0  0  0
   -4.0304   -3.6011   -0.4164 C   0  0  0  0  0  0  0  0  0  0  0  0
   -6.0226   -2.1358   -0.7670 C   0  0  0  0  0  0  0  0  0  0  0  0
   -5.3906   -2.2741   -3.5141 O   0  0  0  0  0  0  0  0  0  0  0  0
   -5.1315   -2.4361   -4.9101 C   0  0  0  0  0  0  0  0  0  0  0  0
   -6.0636   -1.5246   -5.7109 C   0  0  0  0  0  0  0  0  0  0  0  0
   -5.7581   -0.0630   -5.3775 C   0  0  0  0  0  0  0  0  0  0  0  0
   -5.8479   -1.7623   -7.2069 C   0  0  0  0  0  0  0  0  0  0  0  0
    1.9157    1.7315   -0.6522 H   0  0  0  0  0  0  0  0  0  0  0  0
    0.3672    1.8297   -1.5246 H   0  0  0  0  0  0  0  0  0  0  0  0
    0.3960    1.9348    0.2521 H   0  0  0  0  0  0  0  0  0  0  0  0
   -0.3433   -0.3045   -0.4058 H   0  0  0  0  0  0  0  0  0  0  0  0
    1.0915   -0.5074   -1.4395 H   0  0  0  0  0  0  0  0  0  0  0  0
    0.4626   -2.3090   -1.0558 H   0  0  0  0  0  0  0  0  0  0  0  0
    1.6386   -5.6970    1.2523 H   0  0  0  0  0  0  0  0  0  0  0  0
    2.6353   -4.2103    2.9417 H   0  0  0  0  0  0  0  0  0  0  0  0
    2.0655   -1.3299    3.5266 H   0  0  0  0  0  0  0  0  0  0  0  0
    2.9028   -6.7468   -2.5978 H   0  0  0  0  0  0  0  0  0  0  0  0
    2.6566   -4.9839   -2.5917 H   0  0  0  0  0  0  0  0  0  0  0  0
    3.4485   -4.8814   -0.2442 H   0  0  0  0  0  0  0  0  0  0  0  0
    3.6947   -6.6443   -0.2503 H   0  0  0  0  0  0  0  0  0  0  0  0
    5.3281   -6.4097   -2.1011 H   0  0  0  0  0  0  0  0  0  0  0  0
    5.0819   -4.6469   -2.0950 H   0  0  0  0  0  0  0  0  0  0  0  0
    6.9558   -5.2884   -0.7599 H   0  0  0  0  0  0  0  0  0  0  0  0
   -1.8300   -4.9029   -2.6561 H   0  0  0  0  0  0  0  0  0  0  0  0
   -3.2962   -3.6841   -4.2049 H   0  0  0  0  0  0  0  0  0  0  0  0
   -4.2367   -3.5807    0.6435 H   0  0  0  0  0  0  0  0  0  0  0  0
   -6.9002   -2.7815   -0.7355 H   0  0  0  0  0  0  0  0  0  0  0  0
   -5.8017   -1.7737    0.2371 H   0  0  0  0  0  0  0  0  0  0  0  0
   -6.2183   -1.2884   -1.4240 H   0  0  0  0  0  0  0  0  0  0  0  0
   -4.0953   -2.1711   -5.1204 H   0  0  0  0  0  0  0  0  0  0  0  0
   -5.3060   -3.4739   -5.1940 H   0  0  0  0  0  0  0  0  0  0  0  0
   -7.0991   -1.7473   -5.4533 H   0  0  0  0  0  0  0  0  0  0  0  0
   -6.4780    0.5826   -5.8806 H   0  0  0  0  0  0  0  0  0  0  0  0
   -5.8273    0.0860   -4.2999 H   0  0  0  0  0  0  0  0  0  0  0  0
   -4.7512    0.1837   -5.7144 H   0  0  0  0  0  0  0  0  0  0  0  0
   -6.1493   -2.7787   -7.4604 H   0  0  0  0  0  0  0  0  0  0  0  0
   -6.4468   -1.0527   -7.7776 H   0  0  0  0  0  0  0  0  0  0  0  0
   -4.7939   -1.6250   -7.4483 H   0  0  0  0  0  0  0  0  0  0  0  0
  1  2  1  0  0  0  0
  1 37  1  0  0  0  0
  1 38  1  0  0  0  0
  1 39  1  0  0  0  0
  2  3  1  0  0  0  0
  2 40  1  0  0  0  0
  2 41  1  0  0  0  0
  3  4  1  0  0  0  0
  4  9  2  0  0  0  0
  4  5  1  0  0  0  0
  5  6  2  0  0  0  0
  5 42  1  0  0  0  0
  6  7  1  0  0  0  0
  6 11  1  0  0  0  0
  7  8  2  0  0  0  0
  7 43  1  0  0  0  0
  8  9  1  0  0  0  0
  8 44  1  0  0  0  0
  9 10  1  0  0  0  0
 10 45  1  0  0  0  0
 11 12  1  6  0  0  0
 11 17  1  0  0  0  0
 11 13  1  0  0  0  0
 13 14  2  0  0  0  0
 13 23  1  0  0  0  0
 14 15  1  0  0  0  0
 14 22  1  0  0  0  0
 15 16  2  0  0  0  0
 15 17  1  0  0  0  0
 17 18  1  0  0  0  0
 18 19  1  0  0  0  0
 18 46  1  0  0  0  0
 18 47  1  0  0  0  0
 19 20  1  0  0  0  0
 19 48  1  0  0  0  0
 19 49  1  0  0  0  0
 20 21  1  0  0  0  0
 20 50  1  0  0  0  0
 20 51  1  0  0  0  0
 21 52  1  0  0  0  0
 23 24  2  0  0  0  0
 23 25  1  0  0  0  0
 25 30  2  0  0  0  0
 25 26  1  0  0  0  0
 26 27  2  0  0  0  0
 26 53  1  0  0  0  0
 27 28  1  0  0  0  0
 27 54  1  0  0  0  0
 28 29  2  0  0  0  0
 28 32  1  0  0  0  0
 29 30  1  0  0  0  0
 29 31  1  0  0  0  0
 30 55  1  0  0  0  0
 31 56  1  0  0  0  0
 31 57  1  0  0  0  0
 31 58  1  0  0  0  0
 32 33  1  0  0  0  0
 33 34  1  0  0  0  0
 33 59  1  0  0  0  0
 33 60  1  0  0  0  0
 34 35  1  0  0  0  0
 34 36  1  0  0  0  0
 34 61  1  0  0  0  0
 35 62  1  0  0  0  0
 35 63  1  0  0  0  0
 35 64  1  0  0  0  0
 36 65  1  0  0  0  0
 36 66  1  0  0  0  0
 36 67  1  0  0  0  0
M  CHG  1  22  -1
M  END
$$$$
ZINC13249262
 OpenBabel01252620473D

 57 59  0  0  0  0  0  0  0  0999 V2000
   -0.4112    2.1664    2.1388 C   0  0  0  0  0  0  0  0  0  0  0  0
   -1.4865    2.5008    1.1373 C   0  0  0  0  0  0  0  0  0  0  0  0
   -1.3217    3.5706    0.2819 C   0  0  0  0  0  0  0  0  0  0  0  0
   -2.3213    3.8821   -0.6417 C   0  0  0  0  0  0  0  0  0  0  0  0
   -3.4770    3.1003   -0.7005 C   0  0  0  0  0  0  0  0  0  0  0  0
   -3.6262    2.0302    0.1567 C   0  0  0  0  0  0  0  0  0  0  0  0
   -2.6339    1.7305    1.0737 C   0  0  0  0  0  0  0  0  0  0  0  0
   -2.8043    0.5599    2.0074 C   0  0  0  0  0  0  0  0  0  0  0  0
   -5.0838    1.0428    0.0846 S   0  0  0  0  0  0  0  0  0  0  0  0
   -5.9150    1.6180   -0.9141 O   0  0  0  0  0  0  0  0  0  0  0  0
   -4.6550   -0.3110    0.0320 O   0  0  0  0  0  0  0  0  0  0  0  0
   -5.8756    1.2328    1.5266 N   0  0  0  0  0  0  0  0  0  0  0  0
   -6.4061    2.5453    1.9036 C   0  0  0  0  0  0  0  0  0  0  0  0
   -7.3944    2.3828    3.0602 C   0  0  0  0  0  0  0  0  0  0  0  0
   -7.9484    3.7536    3.4539 C   0  0  0  0  0  0  0  0  0  0  0  0
   -8.9219    3.5936    4.5932 C   0  0  0  0  0  0  0  0  0  0  0  0
   -8.6363    3.6318    5.8639 N   0  0  0  0  0  0  0  0  0  0  0  0
   -9.7024    3.4604    6.5611 N   0  0  0  0  0  0  0  0  0  0  0  0
  -10.7347    3.3022    5.7656 C   0  0  0  0  0  0  0  0  0  0  0  0
  -10.2694    3.3874    4.4848 N   0  0  0  0  0  0  0  0  0  0  0  0
  -11.0510    3.2776    3.2506 C   0  0  0  0  0  0  0  0  0  0  0  0
  -12.1602    4.3497    3.2303 C   0  0  0  0  0  0  0  0  0  0  0  0
  -13.3652    3.6360    2.5670 C   0  0  0  0  0  0  0  0  0  0  0  0
  -13.2718    2.2006    3.1415 C   0  0  0  0  0  0  0  0  0  0  0  0
  -11.7574    1.9118    3.1937 C   0  0  0  0  0  0  0  0  0  0  0  0
  -12.4056    3.0367    6.2578 S   0  0  0  0  0  0  0  0  0  0  0  0
  -12.2105    3.0586    8.0571 C   0  0  0  0  0  0  0  0  0  0  0  0
   -2.1546    5.0298   -1.5566 C   0  0  0  0  0  0  0  0  0  0  0  0
   -3.0238    5.2954   -2.3625 O   0  0  0  0  0  0  0  0  0  0  0  0
    0.2989    1.4712    1.6910 H   0  0  0  0  0  0  0  0  0  0  0  0
    0.1088    3.0785    2.4317 H   0  0  0  0  0  0  0  0  0  0  0  0
   -0.8635    1.7077    3.0180 H   0  0  0  0  0  0  0  0  0  0  0  0
   -0.4234    4.1682    0.3293 H   0  0  0  0  0  0  0  0  0  0  0  0
   -4.2522    3.3333   -1.4154 H   0  0  0  0  0  0  0  0  0  0  0  0
   -2.3105   -0.3158    1.5861 H   0  0  0  0  0  0  0  0  0  0  0  0
   -2.3595    0.7982    2.9736 H   0  0  0  0  0  0  0  0  0  0  0  0
   -3.8660    0.3508    2.1379 H   0  0  0  0  0  0  0  0  0  0  0  0
   -5.9882    0.4750    2.1216 H   0  0  0  0  0  0  0  0  0  0  0  0
   -5.5863    3.1929    2.2144 H   0  0  0  0  0  0  0  0  0  0  0  0
   -6.9166    2.9899    1.0492 H   0  0  0  0  0  0  0  0  0  0  0  0
   -8.2142    1.7352    2.7494 H   0  0  0  0  0  0  0  0  0  0  0  0
   -6.8840    1.9382    3.9145 H   0  0  0  0  0  0  0  0  0  0  0  0
   -7.1286    4.4012    3.7647 H   0  0  0  0  0  0  0  0  0  0  0  0
   -8.4589    4.1982    2.5996 H   0  0  0  0  0  0  0  0  0  0  0  0
  -10.3999    3.3976    2.3847 H   0  0  0  0  0  0  0  0  0  0  0  0
  -12.4112    4.6581    4.2452 H   0  0  0  0  0  0  0  0  0  0  0  0
  -11.8497    5.2086    2.6354 H   0  0  0  0  0  0  0  0  0  0  0  0
  -13.2579    3.6257    1.4823 H   0  0  0  0  0  0  0  0  0  0  0  0
  -14.3029    4.1087    2.8590 H   0  0  0  0  0  0  0  0  0  0  0  0
  -13.7728    1.4923    2.4816 H   0  0  0  0  0  0  0  0  0  0  0  0
  -13.7028    2.1591    4.1418 H   0  0  0  0  0  0  0  0  0  0  0  0
  -11.4497    1.3692    2.2998 H   0  0  0  0  0  0  0  0  0  0  0  0
  -11.5179    1.3302    4.0840 H   0  0  0  0  0  0  0  0  0  0  0  0
  -13.1805    2.9035    8.5297 H   0  0  0  0  0  0  0  0  0  0  0  0
  -11.5284    2.2635    8.3583 H   0  0  0  0  0  0  0  0  0  0  0  0
  -11.8052    4.0218    8.3669 H   0  0  0  0  0  0  0  0  0  0  0  0
   -1.0410    5.7853   -1.4935 O   0  0  0  0  0  1  0  0  0  0  0  0
  1  2  1  0  0  0  0
  1 30  1  0  0  0  0
  1 31  1  0  0  0  0
  1 32  1  0  0  0  0
  2  7  2  0  0  0  0
  2  3  1  0  0  0  0
  3  4  2  0  0  0  0
  3 33  1  0  0  0  0
  4  5  1  0  0  0  0
  4 28  1  0  0  0  0
  5  6  2  0  0  0  0
  5 34  1  0  0  0  0
  6  7  1  0  0  0  0
  6  9  1  0  0  0  0
  7  8  1  0  0  0  0
  8 35  1  0  0  0  0
  8 36  1  0  0  0  0
  8 37  1  0  0  0  0
  9 10  2  0  0  0  0
  9 11  2  0  0  0  0
  9 12  1  0  0  0  0
 12 13  1  0  0  0  0
 12 38  1  0  0  0  0
 13 14  1  0  0  0  0
 13 39  1  0  0  0  0
 13 40  1  0  0  0  0
 14 15  1  0  0  0  0
 14 41  1  0  0  0  0
 14 42  1  0  0  0  0
 15 16  1  0  0  0  0
 15 43  1  0  0  0  0
 15 44  1  0  0  0  0
 16 20  1  0  0  0  0
 16 17  2  0  0  0  0
 17 18  1  0  0  0  0
 18 19  2  0  0  0  0
 19 20  1  0  0  0  0
 19 26  1  0  0  0  0
 20 21  1  0  0  0  0
 21 25  1  0  0  0  0
 21 22  1  0  0  0  0
 21 45  1  0  0  0  0
 22 23  1  0  0  0  0
 22 46  1  0  0  0  0
 22 47  1  0  0  0  0
 23 24  1  0  0  0  0
 23 48  1  0  0  0  0
 23 49  1  0  0  0  0
 24 25  1  0  0  0  0
 24 50  1  0  0  0  0
 24 51  1  0  0  0  0
 25 52  1  0  0  0  0
 25 53  1  0  0  0  0
 26 27  1  0  0  0  0
 27 54  1  0  0  0  0
 27 55  1  0  0  0  0
 27 56  1  0  0  0  0
 28 29  2  0  0  0  0
 28 57  1  0  0  0  0
M  END
$$$$
ZINC13403996
 OpenBabel01252620473D

 58 62  0  0  0  0  0  0  0  0999 V2000
   -0.0127    1.0858    0.0080 C   0  0  0  0  0  0  0  0  0  0  0  0
   -0.7288    1.5792    1.2668 C   0  0  0  0  0  0  0  0  0  0  0  0
   -0.7493    3.0861    1.2751 C   0  0  0  0  0  0  0  0  0  0  0  0
    0.2275    3.7871    1.9556 C   0  0  0  0  0  0  0  0  0  0  0  0
    0.2093    5.1694    1.9637 C   0  0  0  0  0  0  0  0  0  0  0  0
   -0.7858    5.8546    1.2906 C   0  0  0  0  0  0  0  0  0  0  0  0
   -1.7648    5.1591    0.6086 C   0  0  0  0  0  0  0  0  0  0  0  0
   -1.7462    3.7710    0.5944 C   0  0  0  0  0  0  0  0  0  0  0  0
   -2.7356    3.0621   -0.1026 N   0  0  0  0  0  0  0  0  0  0  0  0
   -2.6731    2.6691   -1.4119 C   0  0  0  0  0  0  0  0  0  0  0  0
   -3.7831    2.0343   -1.6974 N   0  0  0  0  0  0  0  0  0  0  0  0
   -4.5818    2.0163   -0.5467 N   0  0  0  0  0  0  0  0  0  0  0  0
   -3.9321    2.6358    0.4085 C   0  0  0  0  0  0  0  0  0  0  0  0
   -4.5002    2.8804    2.0584 S   0  0  0  0  0  0  0  0  0  0  0  0
   -6.1309    2.0861    2.0833 C   0  0  0  0  0  0  0  0  0  0  0  0
   -6.7361    2.2245    3.4565 C   0  0  0  0  0  0  0  0  0  0  0  0
   -7.9626    1.6942    3.6863 N   0  0  0  0  0  0  0  0  0  0  0  0
   -8.4339    1.2362    2.9728 H   0  0  0  0  0  0  0  0  0  0  0  0
   -8.5302    1.8036    4.9098 C   0  0  0  0  0  0  0  0  0  0  0  0
   -9.6320    1.3330    5.1347 O   0  0  0  0  0  0  0  0  0  0  0  0
   -7.8087    2.4781    5.9179 C   0  0  0  0  0  0  0  0  0  0  0  0
   -8.0544    2.8062    7.3320 C   0  0  0  0  0  0  0  0  0  0  0  0
   -6.9471    3.4823    7.7477 C   0  0  0  0  0  0  0  0  0  0  0  0
   -6.0785    3.5873    6.7338 O   0  0  0  0  0  0  0  0  0  0  0  0
   -6.5505    3.0020    5.6205 C   0  0  0  0  0  0  0  0  0  0  0  0
   -6.0591    2.8451    4.3815 N   0  0  0  0  0  0  0  0  0  0  0  0
   -6.7327    4.0287    9.1356 C   0  0  0  0  0  0  0  0  0  0  0  0
   -9.2454    2.4744    8.1284 C   0  0  0  0  0  0  0  0  0  0  0  0
   -9.2917    1.4284    8.7459 O   0  0  0  0  0  0  0  0  0  0  0  0
   -1.6181    2.9022   -2.2849 N   0  0  0  0  0  0  0  0  0  0  0  0
   -1.3231    4.3391   -2.3830 C   0  0  0  0  0  0  0  0  0  0  0  0
   -0.1192    4.5455   -3.3060 C   0  0  0  0  0  0  0  0  0  0  0  0
   -0.3972    3.9616   -4.5816 O   0  0  0  0  0  0  0  0  0  0  0  0
   -0.6883    2.5625   -4.5232 C   0  0  0  0  0  0  0  0  0  0  0  0
   -1.8979    2.3360   -3.6125 C   0  0  0  0  0  0  0  0  0  0  0  0
    0.0021   -0.0041    0.0020 H   0  0  0  0  0  0  0  0  0  0  0  0
    1.0099    1.4631    0.0003 H   0  0  0  0  0  0  0  0  0  0  0  0
   -0.5399    1.4469   -0.8751 H   0  0  0  0  0  0  0  0  0  0  0  0
   -1.7514    1.2020    1.2746 H   0  0  0  0  0  0  0  0  0  0  0  0
   -0.2017    1.2182    2.1499 H   0  0  0  0  0  0  0  0  0  0  0  0
    1.0062    3.2547    2.4815 H   0  0  0  0  0  0  0  0  0  0  0  0
    0.9740    5.7154    2.4963 H   0  0  0  0  0  0  0  0  0  0  0  0
   -0.7974    6.9345    1.2986 H   0  0  0  0  0  0  0  0  0  0  0  0
   -2.5415    5.6947    0.0829 H   0  0  0  0  0  0  0  0  0  0  0  0
   -6.7797    2.5655    1.3503 H   0  0  0  0  0  0  0  0  0  0  0  0
   -6.0241    1.0295    1.8381 H   0  0  0  0  0  0  0  0  0  0  0  0
   -5.7618    4.5217    9.1861 H   0  0  0  0  0  0  0  0  0  0  0  0
   -7.5179    4.7479    9.3683 H   0  0  0  0  0  0  0  0  0  0  0  0
   -6.7632    3.2116    9.8565 H   0  0  0  0  0  0  0  0  0  0  0  0
   -2.1884    4.8613   -2.7911 H   0  0  0  0  0  0  0  0  0  0  0  0
   -1.0939    4.7320   -1.3924 H   0  0  0  0  0  0  0  0  0  0  0  0
    0.7590    4.0685   -2.8709 H   0  0  0  0  0  0  0  0  0  0  0  0
    0.0685    5.6123   -3.4272 H   0  0  0  0  0  0  0  0  0  0  0  0
    0.1734    2.0279   -4.1235 H   0  0  0  0  0  0  0  0  0  0  0  0
   -0.9125    2.1947   -5.5244 H   0  0  0  0  0  0  0  0  0  0  0  0
   -2.0883    1.2668   -3.5194 H   0  0  0  0  0  0  0  0  0  0  0  0
   -2.7729    2.8257   -4.0399 H   0  0  0  0  0  0  0  0  0  0  0  0
  -10.2859    3.3304    8.1736 O   0  0  0  0  0  1  0  0  0  0  0  0
  1  2  1  0  0  0  0
  1 36  1  0  0  0  0
  1 37  1  0  0  0  0
  1 38  1  0  0  0  0
  2  3  1  0  0  0  0
  2 39  1  0  0  0  0
  2 40  1  0  0  0  0
  3  8  2  0  0  0  0
  3  4  1  0  0  0  0
  4  5  2  0  0  0  0
  4 41  1  0  0  0  0
  5  6  1  0  0  0  0
  5 42  1  0  0  0  0
  6  7  2  0  0  0  0
  6 43  1  0  0  0  0
  7  8  1  0  0  0  0
  7 44  1  0  0  0  0
  8  9  1  0  0  0  0
  9 13  1  0  0  0  0
  9 10  1  0  0  0  0
 10 11  2  0  0  0  0
 10 30  1  0  0  0  0
 11 12  1  0  0  0  0
 12 13  2  0  0  0  0
 13 14  1  0  0  0  0
 14 15  1  0  0  0  0
 15 16  1  0  0  0  0
 15 45  1  0  0  0  0
 15 46  1  0  0  0  0
 16 26  2  0  0  0  0
 16 17  1  0  0  0  0
 17 18  1  0  0  0  0
 17 19  1  0  0  0  0
 19 20  2  0  0  0  0
 19 21  1  0  0  0  0
 21 25  2  0  0  0  0
 21 22  1  0  0  0  0
 22 23  2  0  0  0  0
 22 28  1  0  0  0  0
 23 24  1  0  0  0  0
 23 27  1  0  0  0  0
 24 25  1  0  0  0  0
 25 26  1  0  0  0  0
 27 47  1  0  0  0  0
 27 48  1  0  0  0  0
 27 49  1  0  0  0  0
 28 29  2  0  0  0  0
 28 58  1  0  0  0  0
 30 35  1  0  0  0  0
 30 31  1  0  0  0  0
 31 32  1  0  0  0  0
 31 50  1  0  0  0  0
 31 51  1  0  0  0  0
 32 33  1  0  0  0  0
 32 52  1  0  0  0  0
 32 53  1  0  0  0  0
 33 34  1  0  0  0  0
 34 35  1  0  0  0  0
 34 54  1  0  0  0  0
 34 55  1  0  0  0  0
 35 56  1  0  0  0  0
 35 57  1  0  0  0  0
M  END
$$$$
ZINC22589215
 OpenBabel01252620473D

 46 48  0  0  1  0  0  0  0  0999 V2000
    4.7999   -0.5633   -4.5963 C   0  0  0  0  0  0  0  0  0  0  0  0
    4.2194   -1.6136   -5.2828 C   0  0  0  0  0  0  0  0  0  0  0  0
    3.4561   -2.5449   -4.6043 C   0  0  0  0  0  0  0  0  0  0  0  0
    3.2771   -2.4289   -3.2383 C   0  0  0  0  0  0  0  0  0  0  0  0
    3.8535   -1.3763   -2.5528 C   0  0  0  0  0  0  0  0  0  0  0  0
    4.6174   -0.4449   -3.2314 C   0  0  0  0  0  0  0  0  0  0  0  0
    3.6207   -1.2253   -0.8127 S   0  0  0  0  0  0  0  0  0  0  0  0
    4.7165   -0.4659   -0.3208 O   0  0  0  0  0  0  0  0  0  0  0  0
    3.3174   -2.5265   -0.3291 O   0  0  0  0  0  0  0  0  0  0  0  0
    2.1772   -0.2462   -0.5633 C   0  0  0  0  0  0  0  0  0  0  0  0
    2.2852    1.1290   -0.4620 C   0  0  0  0  0  0  0  0  0  0  0  0
    1.1559    1.8993   -0.2670 C   0  0  0  0  0  0  0  0  0  0  0  0
   -0.0898    1.2915   -0.1724 C   0  0  0  0  0  0  0  0  0  0  0  0
   -0.1947   -0.0897   -0.2745 C   0  0  0  0  0  0  0  0  0  0  0  0
    0.9390   -0.8543   -0.4696 C   0  0  0  0  0  0  0  0  0  0  0  0
   -1.5198   -0.7414   -0.1749 N   0  0  0  0  0  4  0  0  0  0  0  0
   -1.6109   -1.9527   -0.2645 O   0  0  0  0  0  0  0  0  0  0  0  0
   -2.5191   -0.0665   -0.0032 O   0  5  0  0  0  0  0  0  0  0  0  0
   -1.2348    2.0681    0.0192 N   0  0  0  0  0  2  0  0  0  0  0  0
   -1.3543    3.5573   -0.6952 S   0  0  0  0  0  0  0  0  0  0  0  0
   -2.6633    4.0087   -0.3759 O   0  0  0  0  0  0  0  0  0  0  0  0
   -0.2115    4.2698   -0.2417 O   0  0  0  0  0  0  0  0  0  0  0  0
   -1.2223    3.2325   -2.4750 C   0  0  1  0  0  0  0  0  0  0  0  0
   -0.3092    2.7530   -2.8574 H   0  0  0  0  0  0  0  0  0  0  0  0
   -2.3573    2.2895   -2.9074 C   0  0  0  0  0  0  0  0  0  0  0  0
   -2.4124    2.2788   -4.4619 C   0  0  0  0  0  0  0  0  0  0  0  0
   -2.1338    4.0643   -4.8214 S   0  0  0  0  0  0  0  0  0  0  0  0
   -3.3919    4.7173   -4.9221 O   0  0  0  0  0  0  0  0  0  0  0  0
   -1.1974    4.1814   -5.8837 O   0  0  0  0  0  0  0  0  0  0  0  0
   -1.3221    4.5685   -3.2500 C   0  0  0  0  0  0  0  0  0  0  0  0
    2.8341   -3.6691   -5.3394 N   0  0  0  0  0  4  0  0  0  0  0  0
    2.9950   -3.7734   -6.5422 O   0  0  0  0  0  0  0  0  0  0  0  0
    2.1615   -4.4898   -4.7415 O   0  5  0  0  0  0  0  0  0  0  0  0
    5.3963    0.1644   -5.1265 H   0  0  0  0  0  0  0  0  0  0  0  0
    4.3620   -1.7062   -6.3494 H   0  0  0  0  0  0  0  0  0  0  0  0
    2.6840   -3.1589   -2.7075 H   0  0  0  0  0  0  0  0  0  0  0  0
    5.0711    0.3753   -2.6951 H   0  0  0  0  0  0  0  0  0  0  0  0
    3.2538    1.6008   -0.5360 H   0  0  0  0  0  0  0  0  0  0  0  0
    1.2410    2.9730   -0.1876 H   0  0  0  0  0  0  0  0  0  0  0  0
    0.8581   -1.9283   -0.5495 H   0  0  0  0  0  0  0  0  0  0  0  0
   -2.1566    1.2764   -2.5287 H   0  0  0  0  0  0  0  0  0  0  0  0
   -3.3115    2.6519   -2.4972 H   0  0  0  0  0  0  0  0  0  0  0  0
   -1.6226    1.6201   -4.8522 H   0  0  0  0  0  0  0  0  0  0  0  0
   -3.3945    1.9088   -4.7915 H   0  0  0  0  0  0  0  0  0  0  0  0
   -1.9241    5.2842   -2.6709 H   0  0  0  0  0  0  0  0  0  0  0  0
   -0.3133    4.9788   -3.4049 H   0  0  0  0  0  0  0  0  0  0  0  0
  1  6  2  0  0  0  0
  1  2  1  0  0  0  0
  1 34  1  0  0  0  0
  2  3  2  0  0  0  0
  2 35  1  0  0  0  0
  3  4  1  0  0  0  0
  3 31  1  0  0  0  0
  4  5  2  0  0  0  0
  4 36  1  0  0  0  0
  5  6  1  0  0  0  0
  5  7  1  0  0  0  0
  6 37  1  0  0  0  0
  7  8  2  0  0  0  0
  7  9  2  0  0  0  0
  7 10  1  0  0  0  0
 10 15  2  0  0  0  0
 10 11  1  0  0  0  0
 11 12  2  0  0  0  0
 11 38  1  0  0  0  0
 12 13  1  0  0  0  0
 12 39  1  0  0  0  0
 13 14  2  0  0  0  0
 13 19  1  0  0  0  0
 14 15  1  0  0  0  0
 14 16  1  0  0  0  0
 15 40  1  0  0  0  0
 16 17  2  0  0  0  0
 16 18  1  0  0  0  0
 19 20  1  0  0  0  0
 20 21  2  0  0  0  0
 20 22  2  0  0  0  0
 20 23  1  0  0  0  0
 23 24  1  6  0  0  0
 23 30  1  0  0  0  0
 23 25  1  0  0  0  0
 25 26  1  0  0  0  0
 25 41  1  0  0  0  0
 25 42  1  0  0  0  0
 26 27  1  0  0  0  0
 26 43  1  0  0  0  0
 26 44  1  0  0  0  0
 27 28  2  0  0  0  0
 27 29  2  0  0  0  0
 27 30  1  0  0  0  0
 30 45  1  0  0  0  0
 30 46  1  0  0  0  0
 31 32  2  0  0  0  0
 31 33  1  0  0  0  0
M  CHG  2  18  -1  33  -1
M  END
$$$$
ZINC43510784
 OpenBabel01252620473D

 36 37  0  0  1  0  0  0  0  0999 V2000
   -0.0184    1.5028    0.0103 C   0  0  0  0  0  0  0  0  0  0  0  0
    0.0021   -0.0041    0.0020 C   0  0  0  0  0  0  0  0  0  0  0  0
    0.0056   -0.6859   -1.2029 C   0  0  0  0  0  0  0  0  0  0  0  0
    0.0243   -2.0642   -1.2197 C   0  0  0  0  0  0  0  0  0  0  0  0
    0.0396   -2.7746   -0.0149 C   0  0  0  0  0  0  0  0  0  0  0  0
    0.0359   -2.0787    1.1990 C   0  0  0  0  0  0  0  0  0  0  0  0
    0.0229   -0.6983    1.1983 C   0  0  0  0  0  0  0  0  0  0  0  0
    0.0559   -3.0261    2.8354 Br  0  0  0  0  0  0  0  0  0  0  0  0
    0.0591   -4.2460   -0.0239 C   0  0  0  0  0  0  0  0  0  0  0  0
    0.0622   -4.9130   -1.1958 C   0  0  0  0  0  0  0  0  0  0  0  0
    0.0815   -6.3768   -1.2049 C   0  0  0  0  0  0  0  0  0  0  0  0
    0.0949   -6.9916   -0.1547 O   0  0  0  0  0  0  0  0  0  0  0  0
    0.0846   -7.0435   -2.3762 N   0  0  0  0  0  0  0  0  0  0  0  0
    0.1040   -8.5083   -2.3852 C   0  0  2  0  0  0  0  0  0  0  0  0
    0.1521   -9.0093   -3.8382 C   0  0  0  0  0  0  0  0  0  0  0  0
   -1.2436   -8.7671   -4.4805 C   0  0  0  0  0  0  0  0  0  0  0  0
   -2.3453   -9.2446   -3.0830 S   0  0  0  0  0  0  0  0  0  0  0  0
   -1.1681   -9.0434   -1.6844 C   0  0  0  0  0  0  0  0  0  0  0  0
    1.3243   -8.9969   -1.6482 C   0  0  0  0  0  0  0  0  0  0  0  0
    2.1106   -8.1957   -1.1725 O   0  0  0  0  0  0  0  0  0  0  0  0
    1.5252  -10.1934   -1.5276 O   0  0  0  0  0  1  0  0  0  0  0  0
    1.0042    1.8801    0.0026 H   0  0  0  0  0  0  0  0  0  0  0  0
   -0.5455    1.8639   -0.8728 H   0  0  0  0  0  0  0  0  0  0  0  0
   -0.5286    1.8543    0.9071 H   0  0  0  0  0  0  0  0  0  0  0  0
   -0.0066   -0.1364   -2.1326 H   0  0  0  0  0  0  0  0  0  0  0  0
    0.0267   -2.5942   -2.1607 H   0  0  0  0  0  0  0  0  0  0  0  0
    0.0247   -0.1591    2.1341 H   0  0  0  0  0  0  0  0  0  0  0  0
    0.0709   -4.7916    0.9080 H   0  0  0  0  0  0  0  0  0  0  0  0
    0.0504   -4.3674   -2.1278 H   0  0  0  0  0  0  0  0  0  0  0  0
    0.0740   -6.5534   -3.2132 H   0  0  0  0  0  0  0  0  0  0  0  0
    0.9128   -8.4593   -4.3922 H   0  0  0  0  0  0  0  0  0  0  0  0
    0.3844  -10.0742   -3.8530 H   0  0  0  0  0  0  0  0  0  0  0  0
   -1.3779   -7.7189   -4.7479 H   0  0  0  0  0  0  0  0  0  0  0  0
   -1.3982   -9.4148   -5.3434 H   0  0  0  0  0  0  0  0  0  0  0  0
   -0.9707  -10.0018   -1.2043 H   0  0  0  0  0  0  0  0  0  0  0  0
   -1.5455   -8.3189   -0.9628 H   0  0  0  0  0  0  0  0  0  0  0  0
  1  2  1  0  0  0  0
  1 22  1  0  0  0  0
  1 23  1  0  0  0  0
  1 24  1  0  0  0  0
  2  7  2  0  0  0  0
  2  3  1  0  0  0  0
  3  4  2  0  0  0  0
  3 25  1  0  0  0  0
  4  5  1  0  0  0  0
  4 26  1  0  0  0  0
  5  6  2  0  0  0  0
  5  9  1  0  0  0  0
  6  7  1  0  0  0  0
  6  8  1  0  0  0  0
  7 27  1  0  0  0  0
  9 10  2  0  0  0  0
  9 28  1  0  0  0  0
 10 11  1  0  0  0  0
 10 29  1  0  0  0  0
 11 12  2  0  0  0  0
 11 13  1  0  0  0  0
 13 14  1  0  0  0  0
 13 30  1  0  0  0  0
 14 18  1  0  0  0  0
 14 15  1  0  0  0  0
 14 19  1  1  0  0  0
 15 16  1  0  0  0  0
 15 31  1  0  0  0  0
 15 32  1  0  0  0  0
 16 17  1  0  0  0  0
 16 33  1  0  0  0  0
 16 34  1  0  0  0  0
 17 18  1  0  0  0  0
 18 35  1  0  0  0  0
 18 36  1  0  0  0  0
 19 20  2  0  0  0  0
 19 21  1  0  0  0  0
M  END
$$$$
ZINC13416109
 OpenBabel01252620473D

 42 44  0  0  0  0  0  0  0  0999 V2000
    0.0546    1.3830   -0.0486 C   0  0  0  0  0  0  0  0  0  0  0  0
   -0.6883    1.7031    1.2228 C   0  0  0  0  0  0  0  0  0  0  0  0
   -1.9959    1.9977    1.3073 C   0  0  0  0  0  0  0  0  0  0  0  0
   -2.2775    2.2345    2.7301 C   0  0  0  0  0  0  0  0  0  0  0  0
   -1.0751    2.0626    3.3888 C   0  0  0  0  0  0  0  0  0  0  0  0
   -0.1372    1.7457    2.4739 N   0  0  0  0  0  0  0  0  0  0  0  0
    1.2084    1.4959    2.7630 C   0  0  0  0  0  0  0  0  0  0  0  0
    1.9945    0.4124    2.2905 C   0  0  0  0  0  0  0  0  0  0  0  0
    3.2086    0.6222    2.8490 C   0  0  0  0  0  0  0  0  0  0  0  0
    3.1056    1.7417    3.5796 O   0  0  0  0  0  0  0  0  0  0  0  0
    1.9952    2.2163    3.5175 N   0  0  0  0  0  0  0  0  0  0  0  0
    4.4369   -0.2348    2.6825 C   0  0  0  0  0  0  0  0  0  0  0  0
   -0.8511    2.2050    4.8722 C   0  0  0  0  0  0  0  0  0  0  0  0
   -3.5678    2.5858    3.3272 C   0  0  0  0  0  0  0  0  0  0  0  0
   -3.6552    2.7577    4.5252 O   0  0  0  0  0  0  0  0  0  0  0  0
   -4.7869    2.7339    2.4537 C   0  0  0  0  0  0  0  0  0  0  0  0
   -6.2140    3.1691    3.4784 S   0  0  0  0  0  0  0  0  0  0  0  0
   -7.4604    3.2759    2.2376 C   0  0  0  0  0  0  0  0  0  0  0  0
   -8.7424    3.5607    2.3720 N   0  0  0  0  0  0  0  0  0  0  0  0
   -9.5453    3.6031    1.3256 C   0  0  0  0  0  0  0  0  0  0  0  0
   -9.0277    3.3360    0.1028 C   0  0  0  0  0  0  0  0  0  0  0  0
   -7.3193    3.0262    0.5250 S   0  0  0  0  0  0  0  0  0  0  0  0
  -11.0064    3.9347    1.4883 C   0  0  0  0  0  0  0  0  0  0  0  0
  -11.6259    2.9960    2.4913 C   0  0  0  0  0  0  0  0  0  0  0  0
  -10.9503    2.1450    3.0199 O   0  0  0  0  0  0  0  0  0  0  0  0
    0.1016    0.3019   -0.1797 H   0  0  0  0  0  0  0  0  0  0  0  0
    1.0656    1.7861    0.0100 H   0  0  0  0  0  0  0  0  0  0  0  0
   -0.4660    1.8294   -0.8959 H   0  0  0  0  0  0  0  0  0  0  0  0
   -2.7014    2.0489    0.4912 H   0  0  0  0  0  0  0  0  0  0  0  0
    1.6932   -0.3927    1.6367 H   0  0  0  0  0  0  0  0  0  0  0  0
    5.0121    0.1169    1.8260 H   0  0  0  0  0  0  0  0  0  0  0  0
    5.0490   -0.1712    3.5821 H   0  0  0  0  0  0  0  0  0  0  0  0
    4.1380   -1.2702    2.5189 H   0  0  0  0  0  0  0  0  0  0  0  0
   -0.5848    3.2367    5.1020 H   0  0  0  0  0  0  0  0  0  0  0  0
   -1.7639    1.9381    5.4048 H   0  0  0  0  0  0  0  0  0  0  0  0
   -0.0425    1.5433    5.1827 H   0  0  0  0  0  0  0  0  0  0  0  0
   -4.6282    3.4552    1.7795 H   0  0  0  0  0  0  0  0  0  0  0  0
   -4.9821    1.7927    1.9398 H   0  0  0  0  0  0  0  0  0  0  0  0
   -9.5135    3.3161   -0.8616 H   0  0  0  0  0  0  0  0  0  0  0  0
  -11.1090    4.9613    1.8398 H   0  0  0  0  0  0  0  0  0  0  0  0
  -11.5124    3.8268    0.5289 H   0  0  0  0  0  0  0  0  0  0  0  0
  -12.9282    3.1052    2.7976 O   0  0  0  0  0  1  0  0  0  0  0  0
  1  2  1  0  0  0  0
  1 26  1  0  0  0  0
  1 27  1  0  0  0  0
  1 28  1  0  0  0  0
  2  6  1  0  0  0  0
  2  3  2  0  0  0  0
  3  4  1  0  0  0  0
  3 29  1  0  0  0  0
  4  5  2  0  0  0  0
  4 14  1  0  0  0  0
  5  6  1  0  0  0  0
  5 13  1  0  0  0  0
  6  7  1  0  0  0  0
  7 11  2  0  0  0  0
  7  8  1  0  0  0  0
  8  9  2  0  0  0  0
  8 30  1  0  0  0  0
  9 10  1  0  0  0  0
  9 12  1  0  0  0  0
 10 11  1  0  0  0  0
 12 31  1  0  0  0  0
 12 32  1  0  0  0  0
 12 33  1  0  0  0  0
 13 34  1  0  0  0  0
 13 35  1  0  0  0  0
 13 36  1  0  0  0  0
 14 15  2  0  0  0  0
 14 16  1  0  0  0  0
 16 17  1  0  0  0  0
 16 37  1  0  0  0  0
 16 38  1  0  0  0  0
 17 18  1  0  0  0  0
 18 22  1  0  0  0  0
 18 19  2  0  0  0  0
 19 20  1  0  0  0  0
 20 21  2  0  0  0  0
 20 23  1  0  0  0  0
 21 22  1  0  0  0  0
 21 39  1  0  0  0  0
 23 24  1  0  0  0  0
 23 40  1  0  0  0  0
 23 41  1  0  0  0  0
 24 25  2  0  0  0  0
 24 42  1  0  0  0  0
M  END
$$$$
ZINC55329689
 OpenBabel01252620473D

 30 31  0  0  0  0  0  0  0  0999 V2000
   -0.0166    1.3748    0.0096 C   0  0  0  0  0  0  0  0  0  0  0  0
    1.3205    1.7923   -0.0009 C   0  0  0  0  0  0  0  0  0  0  0  0
    2.0885    0.6769   -0.0142 C   0  0  0  0  0  0  0  0  0  0  0  0
    1.2933   -0.3997   -0.0124 O   0  0  0  0  0  0  0  0  0  0  0  0
    0.0021   -0.0041    0.0020 C   0  0  0  0  0  0  0  0  0  0  0  0
   -1.1317   -0.8545    0.0090 C   0  0  0  0  0  0  0  0  0  0  0  0
   -2.2582   -0.3733    0.0230 O   0  0  0  0  0  0  0  0  0  0  0  0
   -0.9851   -2.0708    0.0010 O   0  0  0  0  0  1  0  0  0  0  0  0
    3.9791    0.6457   -0.0325 Br  0  0  0  0  0  0  0  0  0  0  0  0
    1.8957    3.4578    0.0017 S   0  0  0  0  0  0  0  0  0  0  0  0
    2.8655    3.5541   -1.0326 O   0  0  0  0  0  0  0  0  0  0  0  0
    0.7418    4.2860    0.0435 O   0  0  0  0  0  0  0  0  0  0  0  0
    2.7009    3.6955    1.4291 N   0  0  0  0  0  0  0  0  0  0  0  0
    4.1389    3.4278    1.5123 C   0  0  0  0  0  0  0  0  0  0  0  0
    4.9136    4.7267    1.2812 C   0  0  0  0  0  0  0  0  0  0  0  0
    6.3584    4.4578    1.3648 C   0  0  0  0  0  0  0  0  0  0  0  0
    7.4734    4.2502    1.4294 N   0  0  0  0  0  0  0  0  0  0  0  0
    1.9753    4.1734    2.6086 C   0  0  0  0  0  0  0  0  0  0  0  0
    2.8014    4.5658    3.8352 C   0  0  0  0  0  0  0  0  0  0  0  0
    1.9756    3.2779    3.8491 C   0  0  0  0  0  0  0  0  0  0  0  0
   -0.8909    2.0087    0.0253 H   0  0  0  0  0  0  0  0  0  0  0  0
    4.3783    3.0327    2.4996 H   0  0  0  0  0  0  0  0  0  0  0  0
    4.4173    2.6984    0.7517 H   0  0  0  0  0  0  0  0  0  0  0  0
    4.6742    5.1218    0.2939 H   0  0  0  0  0  0  0  0  0  0  0  0
    4.6352    5.4562    2.0418 H   0  0  0  0  0  0  0  0  0  0  0  0
    1.0728    4.7494    2.4039 H   0  0  0  0  0  0  0  0  0  0  0  0
    3.8847    4.4684    3.7646 H   0  0  0  0  0  0  0  0  0  0  0  0
    2.4425    5.4003    4.4377 H   0  0  0  0  0  0  0  0  0  0  0  0
    1.0735    3.2650    4.4607 H   0  0  0  0  0  0  0  0  0  0  0  0
    2.5157    2.3331    3.7876 H   0  0  0  0  0  0  0  0  0  0  0  0
  1  5  2  0  0  0  0
  1  2  1  0  0  0  0
  1 21  1  0  0  0  0
  2  3  2  0  0  0  0
  2 10  1  0  0  0  0
  3  4  1  0  0  0  0
  3  9  1  0  0  0  0
  4  5  1  0  0  0  0
  5  6  1  0  0  0  0
  6  7  2  0  0  0  0
  6  8  1  0  0  0  0
 10 11  2  0  0  0  0
 10 12  2  0  0  0  0
 10 13  1  0  0  0  0
 13 14  1  0  0  0  0
 13 18  1  0  0  0  0
 14 15  1  0  0  0  0
 14 22  1  0  0  0  0
 14 23  1  0  0  0  0
 15 16  1  0  0  0  0
 15 24  1  0  0  0  0
 15 25  1  0  0  0  0
 16 17  3  0  0  0  0
 18 20  1  0  0  0  0
 18 19  1  0  0  0  0
 18 26  1  0  0  0  0
 19 20  1  0  0  0  0
 19 27  1  0  0  0  0
 19 28  1  0  0  0  0
 20 29  1  0  0  0  0
 20 30  1  0  0  0  0
M  END
$$$$
ZINC09819860
 OpenBabel01252620473D

 50 51  0  0  0  0  0  0  0  0999 V2000
   -2.1818   -0.0307   -0.5651 C   0  0  0  0  0  0  0  0  0  0  0  0
   -2.1981    1.4762   -0.5643 C   0  0  0  0  0  0  0  0  0  0  0  0
   -3.1169    2.0730   -1.0847 O   0  0  0  0  0  0  0  0  0  0  0  0
   -1.1946    2.1607    0.0195 N   0  0  0  0  0  0  0  0  0  0  0  0
   -1.1591    3.5571   -0.0634 C   0  0  0  0  0  0  0  0  0  0  0  0
    0.0588    4.2180   -0.1556 C   0  0  0  0  0  0  0  0  0  0  0  0
    0.0901    5.5960   -0.2431 C   0  0  0  0  0  0  0  0  0  0  0  0
   -1.0891    6.3182   -0.2279 C   0  0  0  0  0  0  0  0  0  0  0  0
   -2.3031    5.6634   -0.1300 C   0  0  0  0  0  0  0  0  0  0  0  0
   -2.3415    4.2853   -0.0480 C   0  0  0  0  0  0  0  0  0  0  0  0
   -1.0445    8.0765   -0.3329 S   0  0  0  0  0  0  0  0  0  0  0  0
    0.1823    8.4146   -0.9653 O   0  0  0  0  0  0  0  0  0  0  0  0
   -2.3046    8.4847   -0.8474 O   0  0  0  0  0  0  0  0  0  0  0  0
   -0.9547    8.6573    1.2153 N   0  0  0  0  0  0  0  0  0  0  0  0
    0.1642    8.3949    1.9901 C   0  0  0  0  0  0  0  0  0  0  0  0
    0.4216    8.7704    3.2285 N   0  0  0  0  0  0  0  0  0  0  0  0
    1.5472    8.4269    3.8261 C   0  0  0  0  0  0  0  0  0  0  0  0
    2.4451    7.6850    3.1350 C   0  0  0  0  0  0  0  0  0  0  0  0
    1.5903    7.4941    1.5775 S   0  0  0  0  0  0  0  0  0  0  0  0
    1.8293    8.8550    5.2432 C   0  0  0  0  0  0  0  0  0  0  0  0
    1.7051   10.3531    5.3495 C   0  0  0  0  0  0  0  0  0  0  0  0
    1.4160   11.0086    4.3708 O   0  0  0  0  0  0  0  0  0  0  0  0
    1.9154   10.9646    6.5320 N   0  0  0  0  0  0  0  0  0  0  0  0
    1.7946   12.4209    6.6353 C   0  0  0  0  0  0  0  0  0  0  0  0
    2.0810   12.8556    8.0740 C   0  0  0  0  0  0  0  0  0  0  0  0
    1.9549   14.3766    8.1819 C   0  0  0  0  0  0  0  0  0  0  0  0
    2.2224   14.7826    9.5257 O   0  0  0  0  0  0  0  0  0  0  0  0
    2.1307   16.1931    9.7358 C   0  0  0  0  0  0  0  0  0  0  0  0
   -3.0704   -0.4034   -1.0747 H   0  0  0  0  0  0  0  0  0  0  0  0
   -1.2905   -0.3841   -1.0836 H   0  0  0  0  0  0  0  0  0  0  0  0
   -2.1728   -0.3945    0.4623 H   0  0  0  0  0  0  0  0  0  0  0  0
   -0.4969    1.6854    0.4971 H   0  0  0  0  0  0  0  0  0  0  0  0
    0.9802    3.6547   -0.1629 H   0  0  0  0  0  0  0  0  0  0  0  0
    1.0367    6.1103   -0.3196 H   0  0  0  0  0  0  0  0  0  0  0  0
   -3.2223    6.2303   -0.1181 H   0  0  0  0  0  0  0  0  0  0  0  0
   -3.2901    3.7745    0.0277 H   0  0  0  0  0  0  0  0  0  0  0  0
   -1.6851    9.1812    1.5799 H   0  0  0  0  0  0  0  0  0  0  0  0
    3.4111    7.3114    3.4409 H   0  0  0  0  0  0  0  0  0  0  0  0
    1.1128    8.3825    5.9150 H   0  0  0  0  0  0  0  0  0  0  0  0
    2.8398    8.5537    5.5195 H   0  0  0  0  0  0  0  0  0  0  0  0
    2.1466   10.4403    7.3147 H   0  0  0  0  0  0  0  0  0  0  0  0
    2.5112   12.8935    5.9635 H   0  0  0  0  0  0  0  0  0  0  0  0
    0.7842   12.7223    6.3590 H   0  0  0  0  0  0  0  0  0  0  0  0
    1.3645   12.3831    8.7458 H   0  0  0  0  0  0  0  0  0  0  0  0
    3.0915   12.5543    8.3503 H   0  0  0  0  0  0  0  0  0  0  0  0
    2.6715   14.8492    7.5101 H   0  0  0  0  0  0  0  0  0  0  0  0
    0.9445   14.6780    7.9056 H   0  0  0  0  0  0  0  0  0  0  0  0
    2.3473   16.4198   10.7798 H   0  0  0  0  0  0  0  0  0  0  0  0
    2.8509   16.7034    9.0963 H   0  0  0  0  0  0  0  0  0  0  0  0
    1.1239   16.5321    9.4918 H   0  0  0  0  0  0  0  0  0  0  0  0
  1  2  1  0  0  0  0
  1 29  1  0  0  0  0
  1 30  1  0  0  0  0
  1 31  1  0  0  0  0
  2  3  2  0  0  0  0
  2  4  1  0  0  0  0
  4  5  1  0  0  0  0
  4 32  1  0  0  0  0
  5 10  2  0  0  0  0
  5  6  1  0  0  0  0
  6  7  2  0  0  0  0
  6 33  1  0  0  0  0
  7  8  1  0  0  0  0
  7 34  1  0  0  0  0
  8  9  2  0  0  0  0
  8 11  1  0  0  0  0
  9 10  1  0  0  0  0
  9 35  1  0  0  0  0
 10 36  1  0  0  0  0
 11 12  2  0  0  0  0
 11 13  2  0  0  0  0
 11 14  1  0  0  0  0
 14 15  1  0  0  0  0
 14 37  1  0  0  0  0
 15 19  1  0  0  0  0
 15 16  2  0  0  0  0
 16 17  1  0  0  0  0
 17 18  2  0  0  0  0
 17 20  1  0  0  0  0
 18 19  1  0  0  0  0
 18 38  1  0  0  0  0
 20 21  1  0  0  0  0
 20 39  1  0  0  0  0
 20 40  1  0  0  0  0
 21 22  2  0  0  0  0
 21 23  1  0  0  0  0
 23 24  1  0  0  0  0
 23 41  1  0  0  0  0
 24 25  1  0  0  0  0
 24 42  1  0  0  0  0
 24 43  1  0  0  0  0
 25 26  1  0  0  0  0
 25 44  1  0  0  0  0
 25 45  1  0  0  0  0
 26 27  1  0  0  0  0
 26 46  1  0  0  0  0
 26 47  1  0  0  0  0
 27 28  1  0  0  0  0
 28 48  1  0  0  0  0
 28 49  1  0  0  0  0
 28 50  1  0  0  0  0
M  END
$$$$
ZINC14996436
 OpenBabel01252620473D

 57 59  0  0  0  0  0  0  0  0999 V2000
    3.7839   -2.0161    0.0069 C   0  0  0  0  0  0  0  0  0  0  0  0
    3.5682   -0.5247    0.0118 C   0  0  0  0  0  0  0  0  0  0  0  0
    2.3073    0.0035   -0.2951 C   0  0  0  0  0  0  0  0  0  0  0  0
    1.1016   -0.6787   -0.6382 C   0  0  0  0  0  0  0  0  0  0  0  0
    0.0121    0.0265   -0.8935 N   0  0  0  0  0  0  0  0  0  0  0  0
   -0.0021    1.3463   -0.8426 C   0  0  0  0  0  0  0  0  0  0  0  0
    1.0792    2.0353   -0.5318 N   0  0  0  0  0  0  0  0  0  0  0  0
    2.2102    1.4163   -0.2620 C   0  0  0  0  0  0  0  0  0  0  0  0
    3.8488    1.9275    0.1870 S   0  0  0  0  0  0  0  0  0  0  0  0
    4.5977    0.3126    0.3158 C   0  0  0  0  0  0  0  0  0  0  0  0
    5.9828   -0.0287    0.6626 C   0  0  0  0  0  0  0  0  0  0  0  0
    6.3299   -1.1942    0.7046 O   0  0  0  0  0  0  0  0  0  0  0  0
    6.8699    0.9489    0.9344 N   0  0  0  0  0  0  0  0  0  0  0  0
    8.2521    0.6083    1.2806 C   0  0  0  0  0  0  0  0  0  0  0  0
    9.0438    1.8915    1.5403 C   0  0  0  0  0  0  0  0  0  0  0  0
   10.4873    1.5358    1.9017 C   0  0  0  0  0  0  0  0  0  0  0  0
   11.3095    2.8187    2.0394 C   0  0  0  0  0  0  0  0  0  0  0  0
   10.5077    0.7723    3.2275 C   0  0  0  0  0  0  0  0  0  0  0  0
    1.0729   -2.0570   -0.7032 N   0  0  0  0  0  0  0  0  0  0  0  0
   -0.1974   -2.7538   -0.9201 C   0  0  0  0  0  0  0  0  0  0  0  0
    0.0479   -4.2637   -0.9508 C   0  0  0  0  0  0  0  0  0  0  0  0
   -1.2787   -4.9914   -1.1772 C   0  0  0  0  0  0  0  0  0  0  0  0
   -1.0438   -6.4371   -1.2066 N   0  0  0  0  0  0  0  0  0  0  0  0
   -0.7413   -7.2024   -2.4218 C   0  0  0  0  0  0  0  0  0  0  0  0
   -0.1512   -8.5433   -1.9260 C   0  0  0  0  0  0  0  0  0  0  0  0
   -0.7844   -8.6634   -0.5204 C   0  0  0  0  0  0  0  0  0  0  0  0
   -1.0834   -7.2341   -0.1249 C   0  0  0  0  0  0  0  0  0  0  0  0
   -1.3242   -6.8616    1.0039 O   0  0  0  0  0  0  0  0  0  0  0  0
    3.9364   -2.3578   -1.0169 H   0  0  0  0  0  0  0  0  0  0  0  0
    4.6622   -2.2582    0.6054 H   0  0  0  0  0  0  0  0  0  0  0  0
    2.9091   -2.5111    0.4287 H   0  0  0  0  0  0  0  0  0  0  0  0
   -0.9182    1.8734   -1.0647 H   0  0  0  0  0  0  0  0  0  0  0  0
    6.5931    1.8779    0.9009 H   0  0  0  0  0  0  0  0  0  0  0  0
    8.2599   -0.0113    2.1773 H   0  0  0  0  0  0  0  0  0  0  0  0
    8.7085    0.0602    0.4563 H   0  0  0  0  0  0  0  0  0  0  0  0
    9.0359    2.5111    0.6435 H   0  0  0  0  0  0  0  0  0  0  0  0
    8.5873    2.4395    2.3645 H   0  0  0  0  0  0  0  0  0  0  0  0
   10.9153    0.9124    1.1168 H   0  0  0  0  0  0  0  0  0  0  0  0
   10.8814    3.4422    2.8243 H   0  0  0  0  0  0  0  0  0  0  0  0
   12.3379    2.5653    2.2969 H   0  0  0  0  0  0  0  0  0  0  0  0
   11.2949    3.3627    1.0949 H   0  0  0  0  0  0  0  0  0  0  0  0
    9.9220   -0.1417    3.1294 H   0  0  0  0  0  0  0  0  0  0  0  0
   11.5361    0.5189    3.4850 H   0  0  0  0  0  0  0  0  0  0  0  0
   10.0797    1.3957    4.0124 H   0  0  0  0  0  0  0  0  0  0  0  0
    1.8939   -2.5643   -0.6054 H   0  0  0  0  0  0  0  0  0  0  0  0
   -0.8862   -2.5140   -0.1101 H   0  0  0  0  0  0  0  0  0  0  0  0
   -0.6284   -2.4363   -1.8696 H   0  0  0  0  0  0  0  0  0  0  0  0
    0.7368   -4.5035   -1.7608 H   0  0  0  0  0  0  0  0  0  0  0  0
    0.4790   -4.5811   -0.0013 H   0  0  0  0  0  0  0  0  0  0  0  0
   -1.9675   -4.7516   -0.3672 H   0  0  0  0  0  0  0  0  0  0  0  0
   -1.7098   -4.6740   -2.1267 H   0  0  0  0  0  0  0  0  0  0  0  0
   -1.6522   -7.3768   -2.9943 H   0  0  0  0  0  0  0  0  0  0  0  0
   -0.0088   -6.6711   -3.0296 H   0  0  0  0  0  0  0  0  0  0  0  0
    0.9358   -8.4955   -1.8613 H   0  0  0  0  0  0  0  0  0  0  0  0
   -0.4660   -9.3665   -2.5672 H   0  0  0  0  0  0  0  0  0  0  0  0
   -0.0792   -9.1130    0.1786 H   0  0  0  0  0  0  0  0  0  0  0  0
   -1.7035   -9.2478   -0.5625 H   0  0  0  0  0  0  0  0  0  0  0  0
  1  2  1  0  0  0  0
  1 29  1  0  0  0  0
  1 30  1  0  0  0  0
  1 31  1  0  0  0  0
  2 10  2  0  0  0  0
  2  3  1  0  0  0  0
  3  8  2  0  0  0  0
  3  4  1  0  0  0  0
  4  5  2  0  0  0  0
  4 19  1  0  0  0  0
  5  6  1  0  0  0  0
  6  7  2  0  0  0  0
  6 32  1  0  0  0  0
  7  8  1  0  0  0  0
  8  9  1  0  0  0  0
  9 10  1  0  0  0  0
 10 11  1  0  0  0  0
 11 12  2  0  0  0  0
 11 13  1  0  0  0  0
 13 14  1  0  0  0  0
 13 33  1  0  0  0  0
 14 15  1  0  0  0  0
 14 34  1  0  0  0  0
 14 35  1  0  0  0  0
 15 16  1  0  0  0  0
 15 36  1  0  0  0  0
 15 37  1  0  0  0  0
 16 17  1  0  0  0  0
 16 18  1  0  0  0  0
 16 38  1  0  0  0  0
 17 39  1  0  0  0  0
 17 40  1  0  0  0  0
 17 41  1  0  0  0  0
 18 42  1  0  0  0  0
 18 43  1  0  0  0  0
 18 44  1  0  0  0  0
 19 20  1  0  0  0  0
 19 45  1  0  0  0  0
 20 21  1  0  0  0  0
 20 46  1  0  0  0  0
 20 47  1  0  0  0  0
 21 22  1  0  0  0  0
 21 48  1  0  0  0  0
 21 49  1  0  0  0  0
 22 23  1  0  0  0  0
 22 50  1  0  0  0  0
 22 51  1  0  0  0  0
 23 27  1  0  0  0  0
 23 24  1  0  0  0  0
 24 25  1  0  0  0  0
 24 52  1  0  0  0  0
 24 53  1  0  0  0  0
 25 26  1  0  0  0  0
 25 54  1  0  0  0  0
 25 55  1  0  0  0  0
 26 27  1  0  0  0  0
 26 56  1  0  0  0  0
 26 57  1  0  0  0  0
 27 28  2  0  0  0  0
M  END
$$$$
ZINC51286569
 OpenBabel01252620473D

 31 32  0  0  1  0  0  0  0  0999 V2000
   -0.5932    1.4756    0.2653 C   0  0  0  0  0  0  0  0  0  0  0  0
    0.7927    2.1004    0.5395 C   0  0  0  0  0  0  0  0  0  0  0  0
    1.5735    1.0293    1.1130 O   0  0  0  0  0  0  0  0  0  0  0  0
    1.2212   -0.1474    0.3532 C   0  0  0  0  0  0  0  0  0  0  0  0
   -0.3049   -0.0372    0.1399 C   0  0  2  0  0  0  0  0  0  0  0  0
   -0.6895   -0.5427   -1.2520 C   0  0  0  0  0  0  0  0  0  0  0  0
   -0.5522   -2.0046   -1.2972 N   0  0  0  0  0  0  0  0  0  0  0  0
    0.8624   -2.3990   -1.3656 C   0  0  0  0  0  0  0  0  0  0  0  0
    0.9619   -3.9267   -1.3507 C   0  0  0  0  0  0  0  0  0  0  0  0
    0.1981   -4.4598   -2.4359 O   0  0  0  0  0  0  0  0  0  0  0  0
   -1.1845   -4.0958   -2.4003 C   0  0  0  0  0  0  0  0  0  0  0  0
   -1.3058   -2.5698   -2.4259 C   0  0  0  0  0  0  0  0  0  0  0  0
   -1.0438   -0.8056    1.2051 C   0  0  0  0  0  0  0  0  0  0  0  0
   -1.7568   -0.2154    1.9987 O   0  0  0  0  0  0  0  0  0  0  0  0
   -0.9285   -2.0174    1.2733 O   0  0  0  0  0  1  0  0  0  0  0  0
   -1.2702    1.6677    1.0977 H   0  0  0  0  0  0  0  0  0  0  0  0
   -1.0098    1.8633   -0.6644 H   0  0  0  0  0  0  0  0  0  0  0  0
    1.2450    2.4436   -0.3910 H   0  0  0  0  0  0  0  0  0  0  0  0
    0.7038    2.9256    1.2461 H   0  0  0  0  0  0  0  0  0  0  0  0
    1.7392   -0.1490   -0.6058 H   0  0  0  0  0  0  0  0  0  0  0  0
    1.4614   -1.0489    0.9167 H   0  0  0  0  0  0  0  0  0  0  0  0
   -1.7225   -0.2680   -1.4657 H   0  0  0  0  0  0  0  0  0  0  0  0
   -0.0325   -0.0928   -1.9963 H   0  0  0  0  0  0  0  0  0  0  0  0
    1.3034   -2.0145   -2.2853 H   0  0  0  0  0  0  0  0  0  0  0  0
    1.3959   -1.9911   -0.5071 H   0  0  0  0  0  0  0  0  0  0  0  0
    2.0049   -4.2245   -1.4588 H   0  0  0  0  0  0  0  0  0  0  0  0
    0.5697   -4.3078   -0.4078 H   0  0  0  0  0  0  0  0  0  0  0  0
   -1.6939   -4.5160   -3.2675 H   0  0  0  0  0  0  0  0  0  0  0  0
   -1.6391   -4.4818   -1.4880 H   0  0  0  0  0  0  0  0  0  0  0  0
   -2.3549   -2.2867   -2.3413 H   0  0  0  0  0  0  0  0  0  0  0  0
   -0.8994   -2.1881   -3.3625 H   0  0  0  0  0  0  0  0  0  0  0  0
  1  5  1  0  0  0  0
  1  2  1  0  0  0  0
  1 16  1  0  0  0  0
  1 17  1  0  0  0  0
  2  3  1  0  0  0  0
  2 18  1  0  0  0  0
  2 19  1  0  0  0  0
  3  4  1  0  0  0  0
  4  5  1  0  0  0  0
  4 20  1  0  0  0  0
  4 21  1  0  0  0  0
  5  6  1  0  0  0  0
  5 13  1  1  0  0  0
  6  7  1  0  0  0  0
  6 22  1  0  0  0  0
  6 23  1  0  0  0  0
  7 12  1  0  0  0  0
  7  8  1  0  0  0  0
  8  9  1  0  0  0  0
  8 24  1  0  0  0  0
  8 25  1  0  0  0  0
  9 10  1  0  0  0  0
  9 26  1  0  0  0  0
  9 27  1  0  0  0  0
 10 11  1  0  0  0  0
 11 12  1  0  0  0  0
 11 28  1  0  0  0  0
 11 29  1  0  0  0  0
 12 30  1  0  0  0  0
 12 31  1  0  0  0  0
 13 14  2  0  0  0  0
 13 15  1  0  0  0  0
M  END
$$$$
ZINC62626431
 OpenBabel01252620473D

 47 49  0  0  0  0  0  0  0  0999 V2000
   -0.0187    1.5258    0.0104 C   0  0  0  0  0  0  0  0  0  0  0  0
    0.0021   -0.0041    0.0020 C   0  0  0  0  0  0  0  0  0  0  0  0
    0.8794   -0.6050    1.4716 S   0  0  0  0  0  0  0  0  0  0  0  0
    2.2398   -0.2053    1.3777 O   0  0  0  0  0  0  0  0  0  0  0  0
    0.1301   -0.2408    2.6227 O   0  0  0  0  0  0  0  0  0  0  0  0
    0.7962   -2.4068    1.2792 C   0  0  0  0  0  0  0  0  0  0  0  0
    1.5031   -3.0788    2.4580 C   0  0  0  0  0  0  0  0  0  0  0  0
    1.4375   -4.4982    2.3064 O   0  0  0  0  0  0  0  0  0  0  0  0
    2.0223   -5.2499    3.2759 C   0  0  0  0  0  0  0  0  0  0  0  0
    2.6413   -4.6341    4.3540 C   0  0  0  0  0  0  0  0  0  0  0  0
    3.2346   -5.4005    5.3384 C   0  0  0  0  0  0  0  0  0  0  0  0
    3.2122   -6.7801    5.2497 C   0  0  0  0  0  0  0  0  0  0  0  0
    2.5962   -7.3962    4.1761 C   0  0  0  0  0  0  0  0  0  0  0  0
    1.9961   -6.6345    3.1922 C   0  0  0  0  0  0  0  0  0  0  0  0
    3.9703   -7.7547    6.5067 S   0  0  0  0  0  0  0  0  0  0  0  0
    4.2881   -9.0064    5.9139 O   0  0  0  0  0  0  0  0  0  0  0  0
    4.9521   -6.9319    7.1218 O   0  0  0  0  0  0  0  0  0  0  0  0
    2.8166   -8.0547    7.6562 N   0  0  0  0  0  2  0  0  0  0  0  0
    3.1326   -8.8062    8.7732 C   0  0  0  0  0  0  0  0  0  0  0  0
    2.3533   -9.1509    9.7824 N   0  0  0  0  0  0  0  0  0  0  0  0
    2.8865   -9.8830   10.7477 C   0  0  0  0  0  0  0  0  0  0  0  0
    4.1577  -10.2173   10.6353 N   0  0  0  0  0  0  0  0  0  0  0  0
    4.6010   -9.5138    9.1801 S   0  0  0  0  0  0  0  0  0  0  0  0
    2.0846  -10.3112   11.9129 C   0  0  0  0  0  0  0  0  0  0  0  0
    2.4663  -11.0574   12.9958 C   0  0  0  0  0  0  0  0  0  0  0  0
    1.5335  -11.3348   13.9708 C   0  0  0  0  0  0  0  0  0  0  0  0
    0.2685  -10.8620   13.8298 C   0  0  0  0  0  0  0  0  0  0  0  0
    0.3681   -9.9835   12.2789 S   0  0  0  0  0  0  0  0  0  0  0  0
   -0.9139  -11.0306   14.7488 C   0  0  0  0  0  0  0  0  0  0  0  0
    1.0039    1.9031    0.0027 H   0  0  0  0  0  0  0  0  0  0  0  0
   -0.5459    1.8868   -0.8726 H   0  0  0  0  0  0  0  0  0  0  0  0
   -0.5289    1.8773    0.9072 H   0  0  0  0  0  0  0  0  0  0  0  0
   -1.0205   -0.3814    0.0098 H   0  0  0  0  0  0  0  0  0  0  0  0
    0.5123   -0.3556   -0.8948 H   0  0  0  0  0  0  0  0  0  0  0  0
   -0.2471   -2.7217    1.2538 H   0  0  0  0  0  0  0  0  0  0  0  0
    1.2857   -2.6959    0.3492 H   0  0  0  0  0  0  0  0  0  0  0  0
    2.5463   -2.7640    2.4835 H   0  0  0  0  0  0  0  0  0  0  0  0
    1.0135   -2.7897    3.3880 H   0  0  0  0  0  0  0  0  0  0  0  0
    2.6598   -3.5565    4.4233 H   0  0  0  0  0  0  0  0  0  0  0  0
    3.7167   -4.9215    6.1778 H   0  0  0  0  0  0  0  0  0  0  0  0
    2.5803   -8.4740    4.1089 H   0  0  0  0  0  0  0  0  0  0  0  0
    1.5112   -7.1163    2.3560 H   0  0  0  0  0  0  0  0  0  0  0  0
    3.4791  -11.4219   13.0835 H   0  0  0  0  0  0  0  0  0  0  0  0
    1.8048  -11.9212   14.8362 H   0  0  0  0  0  0  0  0  0  0  0  0
   -0.9336  -10.2129   15.4692 H   0  0  0  0  0  0  0  0  0  0  0  0
   -1.8333  -11.0215   14.1635 H   0  0  0  0  0  0  0  0  0  0  0  0
   -0.8298  -11.9795   15.2786 H   0  0  0  0  0  0  0  0  0  0  0  0
  1  2  1  0  0  0  0
  1 30  1  0  0  0  0
  1 31  1  0  0  0  0
  1 32  1  0  0  0  0
  2  3  1  0  0  0  0
  2 33  1  0  0  0  0
  2 34  1  0  0  0  0
  3  4  2  0  0  0  0
  3  5  2  0  0  0  0
  3  6  1  0  0  0  0
  6  7  1  0  0  0  0
  6 35  1  0  0  0  0
  6 36  1  0  0  0  0
  7  8  1  0  0  0  0
  7 37  1  0  0  0  0
  7 38  1  0  0  0  0
  8  9  1  0  0  0  0
  9 14  2  0  0  0  0
  9 10  1  0  0  0  0
 10 11  2  0  0  0  0
 10 39  1  0  0  0  0
 11 12  1  0  0  0  0
 11 40  1  0  0  0  0
 12 13  2  0  0  0  0
 12 15  1  0  0  0  0
 13 14  1  0  0  0  0
 13 41  1  0  0  0  0
 14 42  1  0  0  0  0
 15 16  2  0  0  0  0
 15 17  2  0  0  0  0
 15 18  1  0  0  0  0
 18 19  1  0  0  0  0
 19 23  1  0  0  0  0
 19 20  2  0  0  0  0
 20 21  1  0  0  0  0
 21 22  2  0  0  0  0
 21 24  1  0  0  0  0
 22 23  1  0  0  0  0
 24 28  1  0  0  0  0
 24 25  2  0  0  0  0
 25 26  1  0  0  0  0
 25 43  1  0  0  0  0
 26 27  2  0  0  0  0
 26 44  1  0  0  0  0
 27 28  1  0  0  0  0
 27 29  1  0  0  0  0
 29 45  1  0  0  0  0
 29 46  1  0  0  0  0
 29 47  1  0  0  0  0
M  END
$$$$
ZINC62338883
 OpenBabel01252620473D

 35 36  0  0  0  0  0  0  0  0999 V2000
   -0.0187    1.5258    0.0104 C   0  0  0  0  0  0  0  0  0  0  0  0
    0.0021   -0.0041    0.0020 C   0  0  0  0  0  0  0  0  0  0  0  0
   -1.3386   -0.4987    0.0122 O   0  0  0  0  0  0  0  0  0  0  0  0
   -1.4984   -1.8491    0.0064 C   0  0  0  0  0  0  0  0  0  0  0  0
   -0.3876   -2.6801   -0.0029 C   0  0  0  0  0  0  0  0  0  0  0  0
   -0.5450   -4.0516   -0.0101 C   0  0  0  0  0  0  0  0  0  0  0  0
   -1.8197   -4.6047   -0.0075 C   0  0  0  0  0  0  0  0  0  0  0  0
   -2.9287   -3.7665    0.0042 C   0  0  0  0  0  0  0  0  0  0  0  0
   -2.7736   -2.3983    0.0157 C   0  0  0  0  0  0  0  0  0  0  0  0
   -4.5360   -4.4932    0.0147 S   0  0  0  0  0  0  0  0  0  0  0  0
   -5.2440   -3.9073    1.0986 O   0  0  0  0  0  0  0  0  0  0  0  0
   -5.0138   -4.4513   -1.3230 O   0  0  0  0  0  0  0  0  0  0  0  0
   -4.3109   -6.0905    0.3978 N   0  0  0  0  0  0  0  0  0  0  0  0
   -3.1343   -6.6276    0.3459 C   0  0  0  0  0  0  0  0  0  0  0  0
   -1.9884   -5.9892   -0.0189 N   0  0  0  0  0  2  0  0  0  0  0  0
   -3.0044   -8.3290    0.7853 S   0  0  0  0  0  0  0  0  0  0  0  0
   -4.7047   -8.8061    1.2000 C   0  0  0  0  0  0  0  0  0  0  0  0
   -4.7356  -10.2590    1.5991 C   0  0  0  0  0  0  0  0  0  0  0  0
   -3.7114  -10.9086    1.6033 O   0  0  0  0  0  0  0  0  0  0  0  0
   -5.9013  -10.8365    1.9513 N   0  0  0  0  0  0  0  0  0  0  0  0
   -5.9314  -12.2489    2.3392 C   0  0  0  0  0  0  0  0  0  0  0  0
    1.0039    1.9031    0.0027 H   0  0  0  0  0  0  0  0  0  0  0  0
   -0.5459    1.8868   -0.8726 H   0  0  0  0  0  0  0  0  0  0  0  0
   -0.5289    1.8773    0.9072 H   0  0  0  0  0  0  0  0  0  0  0  0
    0.5123   -0.3556   -0.8948 H   0  0  0  0  0  0  0  0  0  0  0  0
    0.5293   -0.3651    0.8851 H   0  0  0  0  0  0  0  0  0  0  0  0
    0.6041   -2.2525   -0.0049 H   0  0  0  0  0  0  0  0  0  0  0  0
    0.3227   -4.6947   -0.0182 H   0  0  0  0  0  0  0  0  0  0  0  0
   -3.6407   -1.7547    0.0273 H   0  0  0  0  0  0  0  0  0  0  0  0
   -5.0620   -8.1942    2.0282 H   0  0  0  0  0  0  0  0  0  0  0  0
   -5.3467   -8.6539    0.3324 H   0  0  0  0  0  0  0  0  0  0  0  0
   -6.7204  -10.3169    1.9479 H   0  0  0  0  0  0  0  0  0  0  0  0
   -6.9530  -12.5356    2.5884 H   0  0  0  0  0  0  0  0  0  0  0  0
   -5.5740  -12.8608    1.5110 H   0  0  0  0  0  0  0  0  0  0  0  0
   -5.2894  -12.4011    3.2068 H   0  0  0  0  0  0  0  0  0  0  0  0
  1  2  1  0  0  0  0
  1 22  1  0  0  0  0
  1 23  1  0  0  0  0
  1 24  1  0  0  0  0
  2  3  1  0  0  0  0
  2 25  1  0  0  0  0
  2 26  1  0  0  0  0
  3  4  1  0  0  0  0
  4  9  2  0  0  0  0
  4  5  1  0  0  0  0
  5  6  2  0  0  0  0
  5 27  1  0  0  0  0
  6  7  1  0  0  0  0
  6 28  1  0  0  0  0
  7 15  1  0  0  0  0
  7  8  2  0  0  0  0
  8  9  1  0  0  0  0
  8 10  1  0  0  0  0
  9 29  1  0  0  0  0
 10 11  2  0  0  0  0
 10 12  2  0  0  0  0
 10 13  1  0  0  0  0
 13 14  2  0  0  0  0
 14 15  1  0  0  0  0
 14 16  1  0  0  0  0
 16 17  1  0  0  0  0
 17 18  1  0  0  0  0
 17 30  1  0  0  0  0
 17 31  1  0  0  0  0
 18 19  2  0  0  0  0
 18 20  1  0  0  0  0
 20 21  1  0  0  0  0
 20 32  1  0  0  0  0
 21 33  1  0  0  0  0
 21 34  1  0  0  0  0
 21 35  1  0  0  0  0
M  END
$$$$
ZINC61948897
 OpenBabel01252620473D

 32 33  0  0  0  0  0  0  0  0999 V2000
    0.1033    1.4939   -0.0176 C   0  0  0  0  0  0  0  0  0  0  0  0
    0.0573    0.0297   -0.0005 N   0  0  0  0  0  0  0  0  0  0  0  0
    0.1780   -0.6921    1.2686 C   0  0  0  0  0  0  0  0  0  0  0  0
   -1.1916   -0.8935    1.8642 C   0  0  0  0  0  0  0  0  0  0  0  0
   -1.7210    0.0599    2.7161 C   0  0  0  0  0  0  0  0  0  0  0  0
   -2.9775   -0.1169    3.2672 C   0  0  0  0  0  0  0  0  0  0  0  0
   -3.7118   -1.2464    2.9700 C   0  0  0  0  0  0  0  0  0  0  0  0
   -3.1841   -2.2122    2.1109 C   0  0  0  0  0  0  0  0  0  0  0  0
   -1.9170   -2.0249    1.5543 C   0  0  0  0  0  0  0  0  0  0  0  0
   -3.9407   -3.3870    1.7980 C   0  0  0  0  0  0  0  0  0  0  0  0
   -4.5409   -4.3191    1.5498 N   0  0  0  0  0  0  0  0  0  0  0  0
   -0.0959   -0.6532   -1.1522 C   0  0  0  0  0  0  0  0  0  0  0  0
   -0.2108   -1.8604   -1.1308 O   0  0  0  0  0  0  0  0  0  0  0  0
   -0.1245    0.0831   -2.4668 C   0  0  0  0  0  0  0  0  0  0  0  0
    0.7590   -0.4519   -3.5956 C   0  0  0  0  0  0  0  0  0  0  0  0
    1.1372    0.8450   -2.8773 C   0  0  0  0  0  0  0  0  0  0  0  0
   -1.4539    0.6822   -2.8474 C   0  0  0  0  0  0  0  0  0  0  0  0
   -2.3025    0.8749   -1.9936 O   0  0  0  0  0  0  0  0  0  0  0  0
   -1.6807    0.9741   -4.0093 O   0  0  0  0  0  1  0  0  0  0  0  0
    1.1413    1.8245   -0.0523 H   0  0  0  0  0  0  0  0  0  0  0  0
   -0.4254    1.8637   -0.8962 H   0  0  0  0  0  0  0  0  0  0  0  0
   -0.3720    1.8829    0.8829 H   0  0  0  0  0  0  0  0  0  0  0  0
    0.6437   -1.6617    1.0923 H   0  0  0  0  0  0  0  0  0  0  0  0
    0.7927   -0.1139    1.9585 H   0  0  0  0  0  0  0  0  0  0  0  0
   -1.1504    0.9460    2.9521 H   0  0  0  0  0  0  0  0  0  0  0  0
   -3.3843    0.6308    3.9319 H   0  0  0  0  0  0  0  0  0  0  0  0
   -4.6925   -1.3834    3.4012 H   0  0  0  0  0  0  0  0  0  0  0  0
   -1.5045   -2.7663    0.8861 H   0  0  0  0  0  0  0  0  0  0  0  0
    1.3609   -1.3365   -3.3874 H   0  0  0  0  0  0  0  0  0  0  0  0
    0.3787   -0.3708   -4.6138 H   0  0  0  0  0  0  0  0  0  0  0  0
    1.0058    1.7793   -3.4231 H   0  0  0  0  0  0  0  0  0  0  0  0
    1.9880    0.8136   -2.1966 H   0  0  0  0  0  0  0  0  0  0  0  0
  1  2  1  0  0  0  0
  1 20  1  0  0  0  0
  1 21  1  0  0  0  0
  1 22  1  0  0  0  0
  2  3  1  0  0  0  0
  2 12  1  0  0  0  0
  3  4  1  0  0  0  0
  3 23  1  0  0  0  0
  3 24  1  0  0  0  0
  4  9  2  0  0  0  0
  4  5  1  0  0  0  0
  5  6  2  0  0  0  0
  5 25  1  0  0  0  0
  6  7  1  0  0  0  0
  6 26  1  0  0  0  0
  7  8  2  0  0  0  0
  7 27  1  0  0  0  0
  8  9  1  0  0  0  0
  8 10  1  0  0  0  0
  9 28  1  0  0  0  0
 10 11  3  0  0  0  0
 12 13  2  0  0  0  0
 12 14  1  0  0  0  0
 14 16  1  0  0  0  0
 14 15  1  0  0  0  0
 14 17  1  0  0  0  0
 15 16  1  0  0  0  0
 15 29  1  0  0  0  0
 15 30  1  0  0  0  0
 16 31  1  0  0  0  0
 16 32  1  0  0  0  0
 17 18  2  0  0  0  0
 17 19  1  0  0  0  0
M  END
$$$$
ZINC13066516
 OpenBabel01252620473D

 53 54  0  0  0  0  0  0  0  0999 V2000
    3.5121    3.8247   -0.2286 C   0  0  0  0  0  0  0  0  0  0  0  0
    2.2025    4.5104    0.0645 C   0  0  0  0  0  0  0  0  0  0  0  0
    1.0976    3.8300    0.0555 N   0  0  0  0  0  0  0  0  0  0  0  0
    1.1221    2.4580   -0.2267 N   0  0  0  0  0  0  0  0  0  0  0  0
   -0.0256    1.7513   -0.2361 C   0  0  0  0  0  0  0  0  0  0  0  0
    0.0044    0.0747   -0.5810 S   0  0  0  0  0  0  0  0  0  0  0  0
   -1.1974    2.3657    0.0206 N   0  0  0  0  0  0  0  0  0  0  0  0
   -2.3978    1.6543   -0.0832 C   0  0  0  0  0  0  0  0  0  0  0  0
   -2.5165    0.4005    0.5018 C   0  0  0  0  0  0  0  0  0  0  0  0
   -3.7042   -0.2973    0.4017 C   0  0  0  0  0  0  0  0  0  0  0  0
   -4.7717    0.2465   -0.2892 C   0  0  0  0  0  0  0  0  0  0  0  0
   -4.6561    1.4924   -0.8776 C   0  0  0  0  0  0  0  0  0  0  0  0
   -3.4720    2.1984   -0.7768 C   0  0  0  0  0  0  0  0  0  0  0  0
   -3.3270    3.7623   -1.5162 Cl  0  0  0  0  0  0  0  0  0  0  0  0
    2.1768    5.9547    0.3617 C   0  0  0  0  0  0  0  0  0  0  0  0
    3.3649    6.6891    0.3779 C   0  0  0  0  0  0  0  0  0  0  0  0
    3.3325    8.0409    0.6504 C   0  0  0  0  0  0  0  0  0  0  0  0
    2.1283    8.6672    0.9191 C   0  0  0  0  0  0  0  0  0  0  0  0
    0.9482    7.9448    0.9109 C   0  0  0  0  0  0  0  0  0  0  0  0
    0.9647    6.5937    0.6338 C   0  0  0  0  0  0  0  0  0  0  0  0
    2.0974   10.3930    1.2729 S   0  0  0  0  0  0  0  0  0  0  0  0
    3.2644   10.9495    0.6833 O   0  0  0  0  0  0  0  0  0  0  0  0
    0.7904   10.8498    0.9530 O   0  0  0  0  0  0  0  0  0  0  0  0
    2.2693   10.5601    2.9115 N   0  0  0  0  0  0  0  0  0  0  0  0
    3.6056   10.6848    3.4988 C   0  0  0  0  0  0  0  0  0  0  0  0
    1.0851   10.5832    3.7737 C   0  0  0  0  0  0  0  0  0  0  0  0
    0.8192    9.1763    4.3128 C   0  0  0  0  0  0  0  0  0  0  0  0
   -0.4175    9.2004    5.2132 C   0  0  0  0  0  0  0  0  0  0  0  0
   -0.6794    7.8146    5.7442 C   0  0  0  0  0  0  0  0  0  0  0  0
    0.0484    6.9014    5.4343 O   0  0  0  0  0  0  0  0  0  0  0  0
    3.7105    3.8631   -1.2997 H   0  0  0  0  0  0  0  0  0  0  0  0
    4.3150    4.3301    0.3080 H   0  0  0  0  0  0  0  0  0  0  0  0
    3.4579    2.7849    0.0939 H   0  0  0  0  0  0  0  0  0  0  0  0
    1.9650    2.0166   -0.4154 H   0  0  0  0  0  0  0  0  0  0  0  0
   -1.2086    3.3010    0.2773 H   0  0  0  0  0  0  0  0  0  0  0  0
   -1.6820   -0.0271    1.0377 H   0  0  0  0  0  0  0  0  0  0  0  0
   -3.7980   -1.2708    0.8597 H   0  0  0  0  0  0  0  0  0  0  0  0
   -5.6978   -0.3034   -0.3696 H   0  0  0  0  0  0  0  0  0  0  0  0
   -5.4915    1.9141   -1.4167 H   0  0  0  0  0  0  0  0  0  0  0  0
    4.3060    6.2007    0.1728 H   0  0  0  0  0  0  0  0  0  0  0  0
    4.2498    8.6110    0.6582 H   0  0  0  0  0  0  0  0  0  0  0  0
    0.0119    8.4401    1.1215 H   0  0  0  0  0  0  0  0  0  0  0  0
    0.0428    6.0311    0.6270 H   0  0  0  0  0  0  0  0  0  0  0  0
    3.8851   11.7373    3.5458 H   0  0  0  0  0  0  0  0  0  0  0  0
    3.6010   10.2648    4.5047 H   0  0  0  0  0  0  0  0  0  0  0  0
    4.3250   10.1449    2.8830 H   0  0  0  0  0  0  0  0  0  0  0  0
    1.2554   11.2653    4.6066 H   0  0  0  0  0  0  0  0  0  0  0  0
    0.2232   10.9207    3.1981 H   0  0  0  0  0  0  0  0  0  0  0  0
    0.6489    8.4942    3.4798 H   0  0  0  0  0  0  0  0  0  0  0  0
    1.6811    8.8388    4.8883 H   0  0  0  0  0  0  0  0  0  0  0  0
   -0.2472    9.8825    6.0462 H   0  0  0  0  0  0  0  0  0  0  0  0
   -1.2795    9.5379    4.6377 H   0  0  0  0  0  0  0  0  0  0  0  0
   -1.7213    7.5949    6.5615 O   0  0  0  0  0  1  0  0  0  0  0  0
  1  2  1  0  0  0  0
  1 31  1  0  0  0  0
  1 32  1  0  0  0  0
  1 33  1  0  0  0  0
  2  3  2  0  0  0  0
  2 15  1  0  0  0  0
  3  4  1  0  0  0  0
  4  5  1  0  0  0  0
  4 34  1  0  0  0  0
  5  6  2  0  0  0  0
  5  7  1  0  0  0  0
  7  8  1  0  0  0  0
  7 35  1  0  0  0  0
  8 13  2  0  0  0  0
  8  9  1  0  0  0  0
  9 10  2  0  0  0  0
  9 36  1  0  0  0  0
 10 11  1  0  0  0  0
 10 37  1  0  0  0  0
 11 12  2  0  0  0  0
 11 38  1  0  0  0  0
 12 13  1  0  0  0  0
 12 39  1  0  0  0  0
 13 14  1  0  0  0  0
 15 20  2  0  0  0  0
 15 16  1  0  0  0  0
 16 17  2  0  0  0  0
 16 40  1  0  0  0  0
 17 18  1  0  0  0  0
 17 41  1  0  0  0  0
 18 19  2  0  0  0  0
 18 21  1  0  0  0  0
 19 20  1  0  0  0  0
 19 42  1  0  0  0  0
 20 43  1  0  0  0  0
 21 22  2  0  0  0  0
 21 23  2  0  0  0  0
 21 24  1  0  0  0  0
 24 25  1  0  0  0  0
 24 26  1  0  0  0  0
 25 44  1  0  0  0  0
 25 45  1  0  0  0  0
 25 46  1  0  0  0  0
 26 27  1  0  0  0  0
 26 47  1  0  0  0  0
 26 48  1  0  0  0  0
 27 28  1  0  0  0  0
 27 49  1  0  0  0  0
 27 50  1  0  0  0  0
 28 29  1  0  0  0  0
 28 51  1  0  0  0  0
 28 52  1  0  0  0  0
 29 30  2  0  0  0  0
 29 53  1  0  0  0  0
M  END
$$$$
ZINC60059880
 OpenBabel01252620473D

 40 42  0  0  0  0  0  0  0  0999 V2000
   -1.0718    1.4296    0.1584 C   0  0  0  0  0  0  0  0  0  0  0  0
   -1.1270   -0.0741    0.2421 C   0  0  0  0  0  0  0  0  0  0  0  0
   -1.8282   -0.8074   -0.6559 C   0  0  0  0  0  0  0  0  0  0  0  0
   -1.5198   -2.4587   -0.0514 S   0  0  0  0  0  0  0  0  0  0  0  0
   -0.5467   -2.0491    1.2592 C   0  0  0  0  0  0  0  0  0  0  0  0
   -0.4893   -0.7360    1.1909 N   0  0  0  0  0  0  0  0  0  0  0  0
    0.0528   -2.8911    2.1840 N   0  0  0  0  0  0  0  0  0  0  0  0
   -0.0193   -4.2766    2.0172 C   0  0  0  0  0  0  0  0  0  0  0  0
   -0.0061   -4.8253    0.7401 C   0  0  0  0  0  0  0  0  0  0  0  0
   -0.0773   -6.1947    0.5743 C   0  0  0  0  0  0  0  0  0  0  0  0
   -0.1613   -7.0238    1.6766 C   0  0  0  0  0  0  0  0  0  0  0  0
   -0.1750   -6.4819    2.9561 C   0  0  0  0  0  0  0  0  0  0  0  0
   -0.0983   -5.1067    3.1264 C   0  0  0  0  0  0  0  0  0  0  0  0
   -0.2609   -7.3206    4.0696 N   0  0  0  0  0  2  0  0  0  0  0  0
   -0.3466   -8.9618    3.8655 S   0  0  0  0  0  0  0  0  0  0  0  0
   -1.5876   -9.2272    3.2262 O   0  0  0  0  0  0  0  0  0  0  0  0
    0.8977   -9.3677    3.3121 O   0  0  0  0  0  0  0  0  0  0  0  0
   -0.4428   -9.6821    5.4707 C   0  0  0  0  0  0  0  0  0  0  0  0
   -1.5800  -10.3692    5.8530 C   0  0  0  0  0  0  0  0  0  0  0  0
   -1.6555  -10.9342    7.1120 C   0  0  0  0  0  0  0  0  0  0  0  0
   -0.5937  -10.8127    7.9891 C   0  0  0  0  0  0  0  0  0  0  0  0
    0.5435  -10.1265    7.6066 C   0  0  0  0  0  0  0  0  0  0  0  0
    0.6207   -9.5650    6.3456 C   0  0  0  0  0  0  0  0  0  0  0  0
    1.8627   -8.8214    5.9266 C   0  0  0  0  0  0  0  0  0  0  0  0
    2.7914   -8.8380    6.9728 F   0  0  0  0  0  0  0  0  0  0  0  0
    2.4179   -9.4382    4.8003 F   0  0  0  0  0  0  0  0  0  0  0  0
    1.5318   -7.4976    5.6178 F   0  0  0  0  0  0  0  0  0  0  0  0
   -0.2282    1.7281   -0.4640 H   0  0  0  0  0  0  0  0  0  0  0  0
   -1.9971    1.8032   -0.2802 H   0  0  0  0  0  0  0  0  0  0  0  0
   -0.9503    1.8449    1.1588 H   0  0  0  0  0  0  0  0  0  0  0  0
   -2.4128   -0.4824   -1.5039 H   0  0  0  0  0  0  0  0  0  0  0  0
    0.5222   -2.5182    2.9466 H   0  0  0  0  0  0  0  0  0  0  0  0
    0.0595   -4.1801   -0.1235 H   0  0  0  0  0  0  0  0  0  0  0  0
   -0.0676   -6.6184   -0.4190 H   0  0  0  0  0  0  0  0  0  0  0  0
   -0.2169   -8.0941    1.5435 H   0  0  0  0  0  0  0  0  0  0  0  0
   -0.1045   -4.6832    4.1199 H   0  0  0  0  0  0  0  0  0  0  0  0
   -2.4095  -10.4642    5.1678 H   0  0  0  0  0  0  0  0  0  0  0  0
   -2.5441  -11.4704    7.4109 H   0  0  0  0  0  0  0  0  0  0  0  0
   -0.6529  -11.2536    8.9732 H   0  0  0  0  0  0  0  0  0  0  0  0
    1.3728  -10.0313    8.2918 H   0  0  0  0  0  0  0  0  0  0  0  0
  1  2  1  0  0  0  0
  1 28  1  0  0  0  0
  1 29  1  0  0  0  0
  1 30  1  0  0  0  0
  2  6  1  0  0  0  0
  2  3  2  0  0  0  0
  3  4  1  0  0  0  0
  3 31  1  0  0  0  0
  4  5  1  0  0  0  0
  5  6  2  0  0  0  0
  5  7  1  0  0  0  0
  7  8  1  0  0  0  0
  7 32  1  0  0  0  0
  8 13  2  0  0  0  0
  8  9  1  0  0  0  0
  9 10  2  0  0  0  0
  9 33  1  0  0  0  0
 10 11  1  0  0  0  0
 10 34  1  0  0  0  0
 11 12  2  0  0  0  0
 11 35  1  0  0  0  0
 12 13  1  0  0  0  0
 12 14  1  0  0  0  0
 13 36  1  0  0  0  0
 14 15  1  0  0  0  0
 15 16  2  0  0  0  0
 15 17  2  0  0  0  0
 15 18  1  0  0  0  0
 18 23  2  0  0  0  0
 18 19  1  0  0  0  0
 19 20  2  0  0  0  0
 19 37  1  0  0  0  0
 20 21  1  0  0  0  0
 20 38  1  0  0  0  0
 21 22  2  0  0  0  0
 21 39  1  0  0  0  0
 22 23  1  0  0  0  0
 22 40  1  0  0  0  0
 23 24  1  0  0  0  0
 24 25  1  0  0  0  0
 24 26  1  0  0  0  0
 24 27  1  0  0  0  0
M  END
$$$$
ZINC32522923
 OpenBabel01252620473D

 55 57  0  0  1  0  0  0  0  0999 V2000
   -0.0184    1.5028    0.0103 C   0  0  0  0  0  0  0  0  0  0  0  0
    0.0021   -0.0041    0.0020 C   0  0  0  0  0  0  0  0  0  0  0  0
   -1.1715   -0.7013    0.0038 C   0  0  0  0  0  0  0  0  0  0  0  0
   -1.1276   -2.1065   -0.0045 C   0  0  0  0  0  0  0  0  0  0  0  0
   -2.1575   -2.7607   -0.0036 O   0  0  0  0  0  0  0  0  0  0  0  0
    0.0760   -2.7182   -0.0140 N   0  0  0  0  0  0  0  0  0  0  0  0
    0.1298   -3.6867   -0.0202 H   0  0  0  0  0  0  0  0  0  0  0  0
    1.2143   -1.9705   -0.0153 C   0  0  0  0  0  0  0  0  0  0  0  0
    1.1639   -0.6523   -0.0126 N   0  0  0  0  0  0  0  0  0  0  0  0
    2.7806   -2.7774   -0.0271 S   0  0  0  0  0  0  0  0  0  0  0  0
    3.9768   -1.4137   -0.0253 C   0  0  0  0  0  0  0  0  0  0  0  0
    5.3762   -1.9729   -0.0349 C   0  0  0  0  0  0  0  0  0  0  0  0
    5.5495   -3.1733   -0.0423 O   0  0  0  0  0  0  0  0  0  0  0  0
    6.4351   -1.1392   -0.0354 N   0  0  0  0  0  0  0  0  0  0  0  0
    7.7222   -1.6536   -0.0442 C   0  0  0  0  0  0  0  0  0  0  0  0
    8.9200   -0.9543   -0.0404 C   0  0  0  0  0  0  0  0  0  0  0  0
   10.1447   -1.7361   -0.0516 C   0  0  0  0  0  0  0  0  0  0  0  0
    9.9475   -3.0717   -0.0648 C   0  0  0  0  0  0  0  0  0  0  0  0
    8.1894   -3.2664   -0.0547 S   0  0  0  0  0  0  0  0  0  0  0  0
   11.0004   -4.1364   -0.0801 C   0  0  0  0  0  0  0  0  0  0  0  0
   12.3389   -3.4855   -0.4590 C   0  0  1  0  0  0  0  0  0  0  0  0
   12.3278   -3.2161   -1.5151 H   0  0  0  0  0  0  0  0  0  0  0  0
   12.5353   -2.2261    0.3897 C   0  0  0  0  0  0  0  0  0  0  0  0
   11.5462   -1.1436   -0.0480 C   0  0  0  0  0  0  0  0  0  0  0  0
   13.4805   -4.4689   -0.1930 C   0  0  0  0  0  0  0  0  0  0  0  0
    8.9492    0.5097   -0.0263 C   0  0  0  0  0  0  0  0  0  0  0  0
    8.9643    1.1075    1.0330 O   0  0  0  0  0  0  0  0  0  0  0  0
    8.9592    1.1953   -1.1878 O   0  0  0  0  0  0  0  0  0  0  0  0
    8.9878    2.6213   -1.0992 C   0  0  0  0  0  0  0  0  0  0  0  0
   -2.4928    0.0234    0.0150 C   0  0  0  0  0  0  0  0  0  0  0  0
   -3.0077    0.1672   -1.4186 C   0  0  0  0  0  0  0  0  0  0  0  0
   -4.2606    0.8544   -1.4080 O   0  0  0  0  0  0  0  0  0  0  0  0
    1.0042    1.8801    0.0026 H   0  0  0  0  0  0  0  0  0  0  0  0
   -0.5455    1.8639   -0.8728 H   0  0  0  0  0  0  0  0  0  0  0  0
   -0.5286    1.8543    0.9071 H   0  0  0  0  0  0  0  0  0  0  0  0
    3.8259   -0.7969   -0.9112 H   0  0  0  0  0  0  0  0  0  0  0  0
    3.8343   -0.8066    0.8687 H   0  0  0  0  0  0  0  0  0  0  0  0
    6.2965   -0.1791   -0.0295 H   0  0  0  0  0  0  0  0  0  0  0  0
   11.0790   -4.5897    0.9081 H   0  0  0  0  0  0  0  0  0  0  0  0
   10.7415   -4.8987   -0.8150 H   0  0  0  0  0  0  0  0  0  0  0  0
   12.3672   -2.4669    1.4393 H   0  0  0  0  0  0  0  0  0  0  0  0
   13.5537   -1.8589    0.2624 H   0  0  0  0  0  0  0  0  0  0  0  0
   11.8006   -0.8001   -1.0507 H   0  0  0  0  0  0  0  0  0  0  0  0
   11.5876   -0.3067    0.6492 H   0  0  0  0  0  0  0  0  0  0  0  0
   13.3324   -5.3679   -0.7912 H   0  0  0  0  0  0  0  0  0  0  0  0
   14.4295   -4.0054   -0.4624 H   0  0  0  0  0  0  0  0  0  0  0  0
   13.4927   -4.7340    0.8642 H   0  0  0  0  0  0  0  0  0  0  0  0
    9.8858    2.9343   -0.5666 H   0  0  0  0  0  0  0  0  0  0  0  0
    8.9931    3.0476   -2.1024 H   0  0  0  0  0  0  0  0  0  0  0  0
    8.1062    2.9696   -0.5611 H   0  0  0  0  0  0  0  0  0  0  0  0
   -3.2132   -0.5435    0.6047 H   0  0  0  0  0  0  0  0  0  0  0  0
   -2.3612    1.0121    0.4546 H   0  0  0  0  0  0  0  0  0  0  0  0
   -2.2873    0.7341   -2.0083 H   0  0  0  0  0  0  0  0  0  0  0  0
   -3.1394   -0.8215   -1.8583 H   0  0  0  0  0  0  0  0  0  0  0  0
   -4.6470    0.9815   -2.2853 H   0  0  0  0  0  0  0  0  0  0  0  0
  1  2  1  0  0  0  0
  1 33  1  0  0  0  0
  1 34  1  0  0  0  0
  1 35  1  0  0  0  0
  2  9  1  0  0  0  0
  2  3  2  0  0  0  0
  3  4  1  0  0  0  0
  3 30  1  0  0  0  0
  4  5  2  0  0  0  0
  4  6  1  0  0  0  0
  6  7  1  0  0  0  0
  6  8  1  0  0  0  0
  8  9  2  0  0  0  0
  8 10  1  0  0  0  0
 10 11  1  0  0  0  0
 11 12  1  0  0  0  0
 11 36  1  0  0  0  0
 11 37  1  0  0  0  0
 12 13  2  0  0  0  0
 12 14  1  0  0  0  0
 14 15  1  0  0  0  0
 14 38  1  0  0  0  0
 15 19  1  0  0  0  0
 15 16  2  0  0  0  0
 16 17  1  0  0  0  0
 16 26  1  0  0  0  0
 17 24  1  0  0  0  0
 17 18  2  0  0  0  0
 18 19  1  0  0  0  0
 18 20  1  0  0  0  0
 20 21  1  0  0  0  0
 20 39  1  0  0  0  0
 20 40  1  0  0  0  0
 21 22  1  6  0  0  0
 21 23  1  0  0  0  0
 21 25  1  0  0  0  0
 23 24  1  0  0  0  0
 23 41  1  0  0  0  0
 23 42  1  0  0  0  0
 24 43  1  0  0  0  0
 24 44  1  0  0  0  0
 25 45  1  0  0  0  0
 25 46  1  0  0  0  0
 25 47  1  0  0  0  0
 26 27  2  0  0  0  0
 26 28  1  0  0  0  0
 28 29  1  0  0  0  0
 29 48  1  0  0  0  0
 29 49  1  0  0  0  0
 29 50  1  0  0  0  0
 30 31  1  0  0  0  0
 30 51  1  0  0  0  0
 30 52  1  0  0  0  0
 31 32  1  0  0  0  0
 31 53  1  0  0  0  0
 31 54  1  0  0  0  0
 32 55  1  0  0  0  0
M  END
$$$$
ZINC13033071
 OpenBabel01252620473D

 42 43  0  0  0  0  0  0  0  0999 V2000
    0.3201    4.1196    2.1410 C   0  0  0  0  0  0  0  0  0  0  0  0
    0.1304    3.0071    1.1422 C   0  0  0  0  0  0  0  0  0  0  0  0
   -1.0741    2.3279    1.0882 C   0  0  0  0  0  0  0  0  0  0  0  0
   -1.2527    1.3053    0.1802 C   0  0  0  0  0  0  0  0  0  0  0  0
   -0.2183    0.9631   -0.6934 C   0  0  0  0  0  0  0  0  0  0  0  0
    0.9944    1.6521   -0.6332 C   0  0  0  0  0  0  0  0  0  0  0  0
    1.1614    2.6692    0.2839 C   0  0  0  0  0  0  0  0  0  0  0  0
    2.6911    3.5402    0.3616 S   0  0  0  0  0  0  0  0  0  0  0  0
    3.5550    2.9292   -0.5868 O   0  0  0  0  0  0  0  0  0  0  0  0
    2.3728    4.9245    0.3212 O   0  0  0  0  0  0  0  0  0  0  0  0
    3.3454    3.2485    1.8547 N   0  0  0  0  0  0  0  0  0  0  0  0
    3.5769    1.9315    2.2728 N   0  0  0  0  0  0  0  0  0  0  0  0
    4.8129    1.5531    2.6543 C   0  0  0  0  0  0  0  0  0  0  0  0
    5.7247    2.3526    2.6356 O   0  0  0  0  0  0  0  0  0  0  0  0
    5.0620    0.1365    3.1040 C   0  0  0  0  0  0  0  0  0  0  0  0
    6.4736   -0.0208    3.4632 N   0  0  0  0  0  0  0  0  0  0  0  0
    6.8719    0.2165    4.7397 C   0  0  0  0  0  0  0  0  0  0  0  0
    8.1699    0.0776    5.0960 C   0  0  0  0  0  0  0  0  0  0  0  0
    9.1197   -0.3152    4.1422 C   0  0  0  0  0  0  0  0  0  0  0  0
    8.7184   -0.5533    2.8600 C   0  0  0  0  0  0  0  0  0  0  0  0
    7.3604   -0.4043    2.5252 C   0  0  0  0  0  0  0  0  0  0  0  0
    6.9864   -0.6184    1.3831 O   0  0  0  0  0  0  0  0  0  0  0  0
    9.8702   -1.0415    1.6565 Cl  0  0  0  0  0  0  0  0  0  0  0  0
    8.5945    0.3455    6.5169 C   0  0  0  0  0  0  0  0  0  0  0  0
    8.6167   -0.8570    7.2315 F   0  0  0  0  0  0  0  0  0  0  0  0
    9.8724    0.9148    6.5222 F   0  0  0  0  0  0  0  0  0  0  0  0
    7.6886    1.2273    7.1159 F   0  0  0  0  0  0  0  0  0  0  0  0
   -0.4046   -0.1268   -1.6731 C   0  0  0  0  0  0  0  0  0  0  0  0
    0.4986   -0.4252   -2.4286 O   0  0  0  0  0  0  0  0  0  0  0  0
    0.8256    3.7317    3.0253 H   0  0  0  0  0  0  0  0  0  0  0  0
    0.9240    4.9096    1.6945 H   0  0  0  0  0  0  0  0  0  0  0  0
   -0.6521    4.5222    2.4254 H   0  0  0  0  0  0  0  0  0  0  0  0
   -1.8746    2.5963    1.7617 H   0  0  0  0  0  0  0  0  0  0  0  0
   -2.1918    0.7733    0.1419 H   0  0  0  0  0  0  0  0  0  0  0  0
    1.8001    1.3893   -1.3027 H   0  0  0  0  0  0  0  0  0  0  0  0
    3.5682    3.9894    2.4397 H   0  0  0  0  0  0  0  0  0  0  0  0
    2.8477    1.2921    2.2877 H   0  0  0  0  0  0  0  0  0  0  0  0
    4.4397   -0.0841    3.9713 H   0  0  0  0  0  0  0  0  0  0  0  0
    4.8143   -0.5505    2.2948 H   0  0  0  0  0  0  0  0  0  0  0  0
    6.1448    0.5197    5.4785 H   0  0  0  0  0  0  0  0  0  0  0  0
   10.1574   -0.4284    4.4194 H   0  0  0  0  0  0  0  0  0  0  0  0
   -1.5760   -0.7897   -1.7286 O   0  0  0  0  0  1  0  0  0  0  0  0
  1  2  1  0  0  0  0
  1 30  1  0  0  0  0
  1 31  1  0  0  0  0
  1 32  1  0  0  0  0
  2  7  2  0  0  0  0
  2  3  1  0  0  0  0
  3  4  2  0  0  0  0
  3 33  1  0  0  0  0
  4  5  1  0  0  0  0
  4 34  1  0  0  0  0
  5  6  2  0  0  0  0
  5 28  1  0  0  0  0
  6  7  1  0  0  0  0
  6 35  1  0  0  0  0
  7  8  1  0  0  0  0
  8  9  2  0  0  0  0
  8 10  2  0  0  0  0
  8 11  1  0  0  0  0
 11 12  1  0  0  0  0
 11 36  1  0  0  0  0
 12 13  1  0  0  0  0
 12 37  1  0  0  0  0
 13 14  2  0  0  0  0
 13 15  1  0  0  0  0
 15 16  1  0  0  0  0
 15 38  1  0  0  0  0
 15 39  1  0  0  0  0
 16 21  1  0  0  0  0
 16 17  1  0  0  0  0
 17 18  2  0  0  0  0
 17 40  1  0  0  0  0
 18 19  1  0  0  0  0
 18 24  1  0  0  0  0
 19 20  2  0  0  0  0
 19 41  1  0  0  0  0
 20 21  1  0  0  0  0
 20 23  1  0  0  0  0
 21 22  2  0  0  0  0
 24 25  1  0  0  0  0
 24 26  1  0  0  0  0
 24 27  1  0  0  0  0
 28 29  2  0  0  0  0
 28 42  1  0  0  0  0
M  END
$$$$
ZINC13217142
 OpenBabel01252620473D

 50 53  0  0  1  0  0  0  0  0999 V2000
    0.1448    1.7375    0.3084 C   0  0  0  0  0  0  0  0  0  0  0  0
    1.3455    2.4228    0.3304 C   0  0  0  0  0  0  0  0  0  0  0  0
    2.5376    1.7317    0.2235 C   0  0  0  0  0  0  0  0  0  0  0  0
    2.5296    0.3551    0.0949 C   0  0  0  0  0  0  0  0  0  0  0  0
    1.3294   -0.3300    0.0738 C   0  0  0  0  0  0  0  0  0  0  0  0
    0.1368    0.3615    0.1793 C   0  0  0  0  0  0  0  0  0  0  0  0
    1.3205   -1.8303   -0.0673 C   0  0  1  0  0  0  0  0  0  0  0  0
    2.1561   -2.1529   -0.6885 H   0  0  0  0  0  0  0  0  0  0  0  0
    1.4037   -2.4807    1.2939 C   0  0  0  0  0  0  0  0  0  0  0  0
    0.2787   -3.2191    1.4432 C   0  0  0  0  0  0  0  0  0  0  0  0
   -0.5540   -3.0857    0.2301 C   0  0  0  0  0  0  0  0  0  0  0  0
   -1.6275   -3.6285    0.0581 O   0  0  0  0  0  0  0  0  0  0  0  0
    0.0522   -2.2742   -0.6574 N   0  0  0  0  0  0  0  0  0  0  0  0
   -0.4388   -1.9170   -1.9161 C   0  0  0  0  0  0  0  0  0  0  0  0
    0.2968   -1.0702   -2.7357 C   0  0  0  0  0  0  0  0  0  0  0  0
   -0.1912   -0.7196   -3.9791 C   0  0  0  0  0  0  0  0  0  0  0  0
   -1.4106   -1.2104   -4.4087 C   0  0  0  0  0  0  0  0  0  0  0  0
   -2.1455   -2.0535   -3.5953 C   0  0  0  0  0  0  0  0  0  0  0  0
   -1.6610   -2.4124   -2.3529 C   0  0  0  0  0  0  0  0  0  0  0  0
   -1.9401   -0.8251   -5.7660 C   0  0  0  0  0  0  0  0  0  0  0  0
   -1.4624   -1.8198   -6.7924 C   0  0  0  0  0  0  0  0  0  0  0  0
   -0.7573   -2.7548   -6.4531 O   0  0  0  0  0  0  0  0  0  0  0  0
   -1.7810   -1.6895   -7.9620 O   0  0  0  0  0  1  0  0  0  0  0  0
   -0.0334   -3.9612    2.5305 O   0  5  0  0  0  0  0  0  0  0  0  0
    2.4920   -2.3391    2.2655 C   0  0  0  0  0  0  0  0  0  0  0  0
    2.5677   -1.3377    2.9527 O   0  0  0  0  0  0  0  0  0  0  0  0
    3.4970   -3.4123    2.4105 C   0  0  0  0  0  0  0  0  0  0  0  0
    3.3578   -4.6047    1.6956 C   0  0  0  0  0  0  0  0  0  0  0  0
    4.2982   -5.6023    1.8347 C   0  0  0  0  0  0  0  0  0  0  0  0
    5.3814   -5.4244    2.6825 C   0  0  0  0  0  0  0  0  0  0  0  0
    5.5245   -4.2430    3.3949 C   0  0  0  0  0  0  0  0  0  0  0  0
    4.5934   -3.2362    3.2587 C   0  0  0  0  0  0  0  0  0  0  0  0
    6.3005   -6.4057    2.8151 F   0  0  0  0  0  0  0  0  0  0  0  0
    3.8063   -0.3849   -0.0206 N   0  0  0  0  0  4  0  0  0  0  0  0
    4.8497    0.2196   -0.1075 O   0  0  0  0  0  0  0  0  0  0  0  0
    3.8057   -1.5939   -0.0280 O   0  5  0  0  0  0  0  0  0  0  0  0
   -0.7866    2.2771    0.3964 H   0  0  0  0  0  0  0  0  0  0  0  0
    1.3517    3.4981    0.4309 H   0  0  0  0  0  0  0  0  0  0  0  0
    3.4755    2.2670    0.2400 H   0  0  0  0  0  0  0  0  0  0  0  0
   -0.8011   -0.1738    0.1624 H   0  0  0  0  0  0  0  0  0  0  0  0
    1.2490   -0.6863   -2.4007 H   0  0  0  0  0  0  0  0  0  0  0  0
    0.3801   -0.0610   -4.6166 H   0  0  0  0  0  0  0  0  0  0  0  0
   -3.0976   -2.4348   -3.9337 H   0  0  0  0  0  0  0  0  0  0  0  0
   -2.2333   -3.0744   -1.7200 H   0  0  0  0  0  0  0  0  0  0  0  0
   -3.0298   -0.8215   -5.7432 H   0  0  0  0  0  0  0  0  0  0  0  0
   -1.5788    0.1693   -6.0281 H   0  0  0  0  0  0  0  0  0  0  0  0
    2.5145   -4.7444    1.0354 H   0  0  0  0  0  0  0  0  0  0  0  0
    4.1914   -6.5245    1.2829 H   0  0  0  0  0  0  0  0  0  0  0  0
    6.3697   -4.1100    4.0539 H   0  0  0  0  0  0  0  0  0  0  0  0
    4.7085   -2.3147    3.8100 H   0  0  0  0  0  0  0  0  0  0  0  0
  1  6  2  0  0  0  0
  1  2  1  0  0  0  0
  1 37  1  0  0  0  0
  2  3  2  0  0  0  0
  2 38  1  0  0  0  0
  3  4  1  0  0  0  0
  3 39  1  0  0  0  0
  4  5  2  0  0  0  0
  4 34  1  0  0  0  0
  5  6  1  0  0  0  0
  5  7  1  0  0  0  0
  6 40  1  0  0  0  0
  7  8  1  6  0  0  0
  7 13  1  0  0  0  0
  7  9  1  0  0  0  0
  9 10  2  0  0  0  0
  9 25  1  0  0  0  0
 10 11  1  0  0  0  0
 10 24  1  0  0  0  0
 11 12  2  0  0  0  0
 11 13  1  0  0  0  0
 13 14  1  0  0  0  0
 14 19  2  0  0  0  0
 14 15  1  0  0  0  0
 15 16  2  0  0  0  0
 15 41  1  0  0  0  0
 16 17  1  0  0  0  0
 16 42  1  0  0  0  0
 17 18  2  0  0  0  0
 17 20  1  0  0  0  0
 18 19  1  0  0  0  0
 18 43  1  0  0  0  0
 19 44  1  0  0  0  0
 20 21  1  0  0  0  0
 20 45  1  0  0  0  0
 20 46  1  0  0  0  0
 21 22  2  0  0  0  0
 21 23  1  0  0  0  0
 25 26  2  0  0  0  0
 25 27  1  0  0  0  0
 27 32  2  0  0  0  0
 27 28  1  0  0  0  0
 28 29  2  0  0  0  0
 28 47  1  0  0  0  0
 29 30  1  0  0  0  0
 29 48  1  0  0  0  0
 30 31  2  0  0  0  0
 30 33  1  0  0  0  0
 31 32  1  0  0  0  0
 31 49  1  0  0  0  0
 32 50  1  0  0  0  0
 34 35  2  0  0  0  0
 34 36  1  0  0  0  0
M  CHG  2  24  -1  36  -1
M  END
$$$$
ZINC37388702
 OpenBabel01252620473D

 26 27  0  0  0  0  0  0  0  0999 V2000
   -0.0168    1.3877    0.0097 C   0  0  0  0  0  0  0  0  0  0  0  0
    1.1644    2.0943    0.0022 C   0  0  0  0  0  0  0  0  0  0  0  0
    2.3850    1.4128   -0.0131 C   0  0  0  0  0  0  0  0  0  0  0  0
    2.4009    0.0134   -0.0207 C   0  0  0  0  0  0  0  0  0  0  0  0
    1.2143   -0.6869   -0.0131 C   0  0  0  0  0  0  0  0  0  0  0  0
    0.0021   -0.0041    0.0020 C   0  0  0  0  0  0  0  0  0  0  0  0
   -1.1948   -0.7145    0.0096 N   0  0  0  0  0  2  0  0  0  0  0  0
   -1.1748   -2.3704    0.0005 S   0  0  0  0  0  0  0  0  0  0  0  0
   -0.6310   -2.7631   -1.2522 O   0  0  0  0  0  0  0  0  0  0  0  0
   -0.6073   -2.7765    1.2383 O   0  0  0  0  0  0  0  0  0  0  0  0
   -2.8515   -2.9117    0.0135 C   0  0  0  0  0  0  0  0  0  0  0  0
   -3.6564   -3.1684   -1.0357 C   0  0  0  0  0  0  0  0  0  0  0  0
   -4.9946   -3.6023   -0.7091 C   0  0  0  0  0  0  0  0  0  0  0  0
   -5.3042   -3.7069    0.6313 C   0  0  0  0  0  0  0  0  0  0  0  0
   -3.8903   -3.2595    1.4160 S   0  0  0  0  0  0  0  0  0  0  0  0
   -5.9775   -3.9161   -1.7523 C   0  0  0  0  0  0  0  0  0  0  0  0
   -5.6712   -3.8126   -2.9329 O   0  0  0  0  0  0  0  0  0  0  0  0
   -7.1038   -4.2813   -1.4420 O   0  0  0  0  0  1  0  0  0  0  0  0
    3.9133   -0.8388   -0.0402 Cl  0  0  0  0  0  0  0  0  0  0  0  0
    3.6158    2.1448   -0.0214 C   0  0  0  0  0  0  0  0  0  0  0  0
    4.5921    2.7255   -0.0280 N   0  0  0  0  0  0  0  0  0  0  0  0
   -0.9598    1.9140    0.0260 H   0  0  0  0  0  0  0  0  0  0  0  0
    1.1483    3.1742    0.0077 H   0  0  0  0  0  0  0  0  0  0  0  0
    1.2251   -1.7668   -0.0194 H   0  0  0  0  0  0  0  0  0  0  0  0
   -3.3222   -3.0566   -2.0566 H   0  0  0  0  0  0  0  0  0  0  0  0
   -6.2412   -4.0108    1.0741 H   0  0  0  0  0  0  0  0  0  0  0  0
  1  6  2  0  0  0  0
  1  2  1  0  0  0  0
  1 22  1  0  0  0  0
  2  3  2  0  0  0  0
  2 23  1  0  0  0  0
  3  4  1  0  0  0  0
  3 20  1  0  0  0  0
  4  5  2  0  0  0  0
  4 19  1  0  0  0  0
  5  6  1  0  0  0  0
  5 24  1  0  0  0  0
  6  7  1  0  0  0  0
  7  8  1  0  0  0  0
  8  9  2  0  0  0  0
  8 10  2  0  0  0  0
  8 11  1  0  0  0  0
 11 15  1  0  0  0  0
 11 12  2  0  0  0  0
 12 13  1  0  0  0  0
 12 25  1  0  0  0  0
 13 14  2  0  0  0  0
 13 16  1  0  0  0  0
 14 15  1  0  0  0  0
 14 26  1  0  0  0  0
 16 17  2  0  0  0  0
 16 18  1  0  0  0  0
 20 21  3  0  0  0  0
M  END
$$$$
ZINC13827511
 OpenBabel01252620473D

 70 69  0  0  1  0  0  0  0  0999 V2000
    0.7166    0.8788   -0.7585 C   0  0  0  0  0  0  0  0  0  0  0  0
    1.0633   -0.4188   -0.0257 C   0  0  1  0  0  0  0  0  0  0  0  0
    0.1517   -0.8686    0.3678 H   0  0  0  0  0  0  0  0  0  0  0  0
    1.7327   -1.3911   -0.9991 C   0  0  0  0  0  0  0  0  0  0  0  0
    0.7484   -1.7882   -2.0689 C   0  0  0  0  0  0  0  0  0  0  0  0
    1.0677   -1.6601   -3.3329 C   0  0  0  0  0  0  0  0  0  0  0  0
    2.4695   -1.2647   -3.7196 C   0  0  0  0  0  0  0  0  0  0  0  0
    3.0210   -2.2686   -4.7340 C   0  0  0  0  0  0  0  0  0  0  0  0
    4.4229   -1.8732   -5.1208 C   0  0  0  0  0  0  0  0  0  0  0  0
    5.4184   -2.7435   -4.9908 C   0  0  0  0  0  0  0  0  0  0  0  0
    6.7869   -2.3576   -5.3683 C   0  0  0  0  0  0  0  0  0  0  0  0
    7.7824   -3.2279   -5.2383 C   0  0  0  0  0  0  0  0  0  0  0  0
    9.1843   -2.8326   -5.6251 C   0  0  0  0  0  0  0  0  0  0  0  0
   10.1245   -3.0634   -4.4403 C   0  0  1  0  0  0  0  0  0  0  0  0
   10.0411   -4.0976   -4.1064 H   0  0  0  0  0  0  0  0  0  0  0  0
   11.5438   -2.7851   -4.8637 C   0  0  0  0  0  0  0  0  0  0  0  0
   12.4306   -3.7815   -4.9218 C   0  0  0  0  0  0  0  0  0  0  0  0
   11.9949   -5.1612   -4.7116 C   0  0  0  0  0  0  0  0  0  0  0  0
   12.9085   -6.1612   -4.6684 C   0  0  0  0  0  0  0  0  0  0  0  0
   14.3736   -5.8511   -4.8370 C   0  0  0  0  0  0  0  0  0  0  0  0
   12.4872   -7.4952   -4.4652 C   0  0  0  0  0  0  0  0  0  0  0  0
   11.2960   -7.7473   -4.3282 O   0  0  0  0  0  0  0  0  0  0  0  0
   13.3132   -8.3993   -4.4262 O   0  0  0  0  0  1  0  0  0  0  0  0
   11.9620   -1.3823   -5.2216 C   0  0  0  0  0  0  0  0  0  0  0  0
    9.7661   -2.1869   -3.3701 O   0  0  0  0  0  0  0  0  0  0  0  0
   10.0505   -2.7096   -2.0708 C   0  0  0  0  0  0  0  0  0  0  0  0
    2.0058   -0.1174    1.1109 C   0  0  0  0  0  0  0  0  0  0  0  0
    1.6246   -0.3395    2.3711 C   0  0  0  0  0  0  0  0  0  0  0  0
    0.2495   -0.7443    2.6583 C   0  0  0  0  0  0  0  0  0  0  0  0
   -0.0035   -1.9792    3.1559 C   0  0  0  0  0  0  0  0  0  0  0  0
    1.0672   -2.8356    3.5000 C   0  0  0  0  0  0  0  0  0  0  0  0
    2.2209   -2.5019    3.2571 O   0  0  0  0  0  0  0  0  0  0  0  0
    0.8416   -3.9115    4.0410 O   0  0  0  0  0  1  0  0  0  0  0  0
   -0.8867    0.2117    2.4010 C   0  0  0  0  0  0  0  0  0  0  0  0
   -1.0736    1.1044    3.6007 C   0  0  0  0  0  0  0  0  0  0  0  0
   -0.3512    0.9761    4.5744 O   0  0  0  0  0  0  0  0  0  0  0  0
   -1.9473    1.9548    3.5976 O   0  0  0  0  0  1  0  0  0  0  0  0
    1.6282    1.3285   -1.1519 H   0  0  0  0  0  0  0  0  0  0  0  0
    0.0349    0.6607   -1.5806 H   0  0  0  0  0  0  0  0  0  0  0  0
    0.2397    1.5714   -0.0650 H   0  0  0  0  0  0  0  0  0  0  0  0
    2.5947   -0.9083   -1.4596 H   0  0  0  0  0  0  0  0  0  0  0  0
    2.0595   -2.2792   -0.4583 H   0  0  0  0  0  0  0  0  0  0  0  0
   -0.2203   -2.1783   -1.7935 H   0  0  0  0  0  0  0  0  0  0  0  0
    0.3263   -1.8379   -4.0978 H   0  0  0  0  0  0  0  0  0  0  0  0
    2.4569   -0.2693   -4.1636 H   0  0  0  0  0  0  0  0  0  0  0  0
    3.1032   -1.2590   -2.8328 H   0  0  0  0  0  0  0  0  0  0  0  0
    3.0337   -3.2640   -4.2901 H   0  0  0  0  0  0  0  0  0  0  0  0
    2.3874   -2.2743   -5.6209 H   0  0  0  0  0  0  0  0  0  0  0  0
    4.6183   -0.8824   -5.5036 H   0  0  0  0  0  0  0  0  0  0  0  0
    5.2229   -3.7343   -4.6080 H   0  0  0  0  0  0  0  0  0  0  0  0
    6.9824   -1.3668   -5.7511 H   0  0  0  0  0  0  0  0  0  0  0  0
    7.5870   -4.2187   -4.8555 H   0  0  0  0  0  0  0  0  0  0  0  0
    9.5116   -3.4362   -6.4716 H   0  0  0  0  0  0  0  0  0  0  0  0
    9.2011   -1.7785   -5.9023 H   0  0  0  0  0  0  0  0  0  0  0  0
   13.4699   -3.5683   -5.1239 H   0  0  0  0  0  0  0  0  0  0  0  0
   10.9449   -5.3834   -4.5908 H   0  0  0  0  0  0  0  0  0  0  0  0
   14.8170   -5.6501   -3.8617 H   0  0  0  0  0  0  0  0  0  0  0  0
   14.8750   -6.7035   -5.2953 H   0  0  0  0  0  0  0  0  0  0  0  0
   14.4885   -4.9754   -5.4758 H   0  0  0  0  0  0  0  0  0  0  0  0
   12.3212   -0.8712   -4.3283 H   0  0  0  0  0  0  0  0  0  0  0  0
   12.7589   -1.4190   -5.9643 H   0  0  0  0  0  0  0  0  0  0  0  0
   11.1085   -0.8419   -5.6309 H   0  0  0  0  0  0  0  0  0  0  0  0
    9.4992   -3.6384   -1.9242 H   0  0  0  0  0  0  0  0  0  0  0  0
   11.1194   -2.9038   -1.9833 H   0  0  0  0  0  0  0  0  0  0  0  0
    9.7496   -1.9851   -1.3139 H   0  0  0  0  0  0  0  0  0  0  0  0
    2.9896    0.2784    0.9062 H   0  0  0  0  0  0  0  0  0  0  0  0
    2.3322   -0.2202    3.1783 H   0  0  0  0  0  0  0  0  0  0  0  0
   -1.0232   -2.3090    3.2896 H   0  0  0  0  0  0  0  0  0  0  0  0
   -0.6578    0.8212    1.5268 H   0  0  0  0  0  0  0  0  0  0  0  0
   -1.8022   -0.3519    2.2213 H   0  0  0  0  0  0  0  0  0  0  0  0
  1  2  1  0  0  0  0
  1 38  1  0  0  0  0
  1 39  1  0  0  0  0
  1 40  1  0  0  0  0
  2  3  1  1  0  0  0
  2  4  1  0  0  0  0
  2 27  1  0  0  0  0
  4  5  1  0  0  0  0
  4 41  1  0  0  0  0
  4 42  1  0  0  0  0
  5  6  2  0  0  0  0
  5 43  1  0  0  0  0
  6  7  1  0  0  0  0
  6 44  1  0  0  0  0
  7  8  1  0  0  0  0
  7 45  1  0  0  0  0
  7 46  1  0  0  0  0
  8  9  1  0  0  0  0
  8 47  1  0  0  0  0
  8 48  1  0  0  0  0
  9 10  2  0  0  0  0
  9 49  1  0  0  0  0
 10 11  1  0  0  0  0
 10 50  1  0  0  0  0
 11 12  2  0  0  0  0
 11 51  1  0  0  0  0
 12 13  1  0  0  0  0
 12 52  1  0  0  0  0
 13 14  1  0  0  0  0
 13 53  1  0  0  0  0
 13 54  1  0  0  0  0
 14 15  1  1  0  0  0
 14 16  1  0  0  0  0
 14 25  1  0  0  0  0
 16 17  2  0  0  0  0
 16 24  1  0  0  0  0
 17 18  1  0  0  0  0
 17 55  1  0  0  0  0
 18 19  2  0  0  0  0
 18 56  1  0  0  0  0
 19 20  1  0  0  0  0
 19 21  1  0  0  0  0
 20 57  1  0  0  0  0
 20 58  1  0  0  0  0
 20 59  1  0  0  0  0
 21 22  2  0  0  0  0
 21 23  1  0  0  0  0
 24 60  1  0  0  0  0
 24 61  1  0  0  0  0
 24 62  1  0  0  0  0
 25 26  1  0  0  0  0
 26 63  1  0  0  0  0
 26 64  1  0  0  0  0
 26 65  1  0  0  0  0
 27 28  2  0  0  0  0
 27 66  1  0  0  0  0
 28 29  1  0  0  0  0
 28 67  1  0  0  0  0
 29 30  2  0  0  0  0
 29 34  1  0  0  0  0
 30 31  1  0  0  0  0
 30 68  1  0  0  0  0
 31 32  2  0  0  0  0
 31 33  1  0  0  0  0
 34 35  1  0  0  0  0
 34 69  1  0  0  0  0
 34 70  1  0  0  0  0
 35 36  2  0  0  0  0
 35 37  1  0  0  0  0
M  END
$$$$
ZINC39827853
 OpenBabel01252620473D

 70 73  0  0  1  0  0  0  0  0999 V2000
   -2.6727    1.8693   -6.3737 C   0  0  0  0  0  0  0  0  0  0  0  0
   -2.7668    0.3422   -6.3861 C   0  0  0  0  0  0  0  0  0  0  0  0
   -1.3678   -0.2562   -6.2267 C   0  0  0  0  0  0  0  0  0  0  0  0
   -1.4556   -1.6825   -6.2382 O   0  0  0  0  0  0  0  0  0  0  0  0
   -0.2946   -2.3723   -6.1061 C   0  0  0  0  0  0  0  0  0  0  0  0
    0.9066   -1.6868   -5.9621 C   0  0  0  0  0  0  0  0  0  0  0  0
    2.0867   -2.3828   -5.8278 C   0  0  0  0  0  0  0  0  0  0  0  0
    2.0763   -3.7809   -5.8359 C   0  0  0  0  0  0  0  0  0  0  0  0
    0.8661   -4.4663   -5.9804 C   0  0  0  0  0  0  0  0  0  0  0  0
   -0.3100   -3.7627   -6.1093 C   0  0  0  0  0  0  0  0  0  0  0  0
    3.3393   -4.5313   -5.6927 C   0  0  0  0  0  0  0  0  0  0  0  0
    4.3994   -3.9353   -5.6478 O   0  0  0  0  0  0  0  0  0  0  0  0
    3.3167   -5.9949   -5.6044 C   0  0  0  0  0  0  0  0  0  0  0  0
    3.8908   -6.8645   -6.4678 C   0  0  0  0  0  0  0  0  0  0  0  0
    3.6299   -8.2457   -6.0113 C   0  0  0  0  0  0  0  0  0  0  0  0
    4.0149   -9.2508   -6.5749 O   0  0  0  0  0  0  0  0  0  0  0  0
    2.9031   -8.2256   -4.8792 N   0  0  0  0  0  0  0  0  0  0  0  0
    2.6534   -6.8226   -4.5284 C   0  0  1  0  0  0  0  0  0  0  0  0
    1.5810   -6.6276   -4.5133 H   0  0  0  0  0  0  0  0  0  0  0  0
    3.2574   -6.5056   -3.1847 C   0  0  0  0  0  0  0  0  0  0  0  0
    4.5556   -6.8896   -2.9042 C   0  0  0  0  0  0  0  0  0  0  0  0
    5.1142   -6.6012   -1.6730 C   0  0  0  0  0  0  0  0  0  0  0  0
    4.3729   -5.9255   -0.7170 C   0  0  0  0  0  0  0  0  0  0  0  0
    3.0664   -5.5386   -0.9995 C   0  0  0  0  0  0  0  0  0  0  0  0
    2.5142   -5.8266   -2.2373 C   0  0  0  0  0  0  0  0  0  0  0  0
    2.3349   -4.8752   -0.0645 O   0  0  0  0  0  0  0  0  0  0  0  0
    1.0491   -4.3979   -0.4656 C   0  0  0  0  0  0  0  0  0  0  0  0
    0.4311   -3.5808    0.6708 C   0  0  0  0  0  0  0  0  0  0  0  0
    4.9209   -5.6414    0.4948 O   0  0  0  0  0  0  0  0  0  0  0  0
    2.4473   -9.3968   -4.1264 C   0  0  0  0  0  0  0  0  0  0  0  0
    3.5022   -9.7760   -3.0851 C   0  0  0  0  0  0  0  0  0  0  0  0
    3.0452  -10.9504   -2.3303 N   0  0  0  0  0  0  0  0  0  0  0  0
    1.8625  -10.6276   -1.5188 C   0  0  0  0  0  0  0  0  0  0  0  0
    1.3851  -11.8906   -0.7972 C   0  0  0  0  0  0  0  0  0  0  0  0
    2.4559  -12.4164   -0.0083 O   0  0  0  0  0  0  0  0  0  0  0  0
    3.6237  -12.7424   -0.7669 C   0  0  0  0  0  0  0  0  0  0  0  0
    4.1237  -11.4879   -1.4882 C   0  0  0  0  0  0  0  0  0  0  0  0
    4.5923   -6.5235   -7.5734 O   0  5  0  0  0  0  0  0  0  0  0  0
   -2.2420    2.1991   -5.4283 H   0  0  0  0  0  0  0  0  0  0  0  0
   -2.0397    2.2010   -7.1968 H   0  0  0  0  0  0  0  0  0  0  0  0
   -3.6694    2.2956   -6.4873 H   0  0  0  0  0  0  0  0  0  0  0  0
   -3.3998    0.0105   -5.5631 H   0  0  0  0  0  0  0  0  0  0  0  0
   -3.1975    0.0124   -7.3315 H   0  0  0  0  0  0  0  0  0  0  0  0
   -0.7347    0.0755   -7.0497 H   0  0  0  0  0  0  0  0  0  0  0  0
   -0.9370    0.0736   -5.2813 H   0  0  0  0  0  0  0  0  0  0  0  0
    0.9138   -0.6068   -5.9560 H   0  0  0  0  0  0  0  0  0  0  0  0
    3.0193   -1.8496   -5.7168 H   0  0  0  0  0  0  0  0  0  0  0  0
    0.8537   -5.5463   -5.9871 H   0  0  0  0  0  0  0  0  0  0  0  0
   -1.2456   -4.2913   -6.2169 H   0  0  0  0  0  0  0  0  0  0  0  0
    5.1344   -7.4163   -3.6484 H   0  0  0  0  0  0  0  0  0  0  0  0
    6.1283   -6.9028   -1.4561 H   0  0  0  0  0  0  0  0  0  0  0  0
    1.5017   -5.5241   -2.4604 H   0  0  0  0  0  0  0  0  0  0  0  0
    1.1545   -3.7691   -1.3497 H   0  0  0  0  0  0  0  0  0  0  0  0
    0.4031   -5.2448   -0.6971 H   0  0  0  0  0  0  0  0  0  0  0  0
    1.0771   -2.7339    0.9022 H   0  0  0  0  0  0  0  0  0  0  0  0
   -0.5497   -3.2167    0.3648 H   0  0  0  0  0  0  0  0  0  0  0  0
    0.3257   -4.2097    1.5548 H   0  0  0  0  0  0  0  0  0  0  0  0
    5.3758   -4.7888    0.5307 H   0  0  0  0  0  0  0  0  0  0  0  0
    1.5086   -9.1631   -3.6242 H   0  0  0  0  0  0  0  0  0  0  0  0
    2.2954  -10.2318   -4.8104 H   0  0  0  0  0  0  0  0  0  0  0  0
    4.4410  -10.0097   -3.5874 H   0  0  0  0  0  0  0  0  0  0  0  0
    3.6542   -8.9410   -2.4011 H   0  0  0  0  0  0  0  0  0  0  0  0
    2.1220   -9.8650   -0.7845 H   0  0  0  0  0  0  0  0  0  0  0  0
    1.0679  -10.2556   -2.1656 H   0  0  0  0  0  0  0  0  0  0  0  0
    0.5434  -11.6440   -0.1501 H   0  0  0  0  0  0  0  0  0  0  0  0
    1.0750  -12.6341   -1.5315 H   0  0  0  0  0  0  0  0  0  0  0  0
    4.4009  -13.1117   -0.0979 H   0  0  0  0  0  0  0  0  0  0  0  0
    3.3786  -13.5106   -1.5003 H   0  0  0  0  0  0  0  0  0  0  0  0
    4.9797  -11.7440   -2.1126 H   0  0  0  0  0  0  0  0  0  0  0  0
    4.4194  -10.7391   -0.7534 H   0  0  0  0  0  0  0  0  0  0  0  0
  1  2  1  0  0  0  0
  1 39  1  0  0  0  0
  1 40  1  0  0  0  0
  1 41  1  0  0  0  0
  2  3  1  0  0  0  0
  2 42  1  0  0  0  0
  2 43  1  0  0  0  0
  3  4  1  0  0  0  0
  3 44  1  0  0  0  0
  3 45  1  0  0  0  0
  4  5  1  0  0  0  0
  5 10  2  0  0  0  0
  5  6  1  0  0  0  0
  6  7  2  0  0  0  0
  6 46  1  0  0  0  0
  7  8  1  0  0  0  0
  7 47  1  0  0  0  0
  8  9  2  0  0  0  0
  8 11  1  0  0  0  0
  9 10  1  0  0  0  0
  9 48  1  0  0  0  0
 10 49  1  0  0  0  0
 11 12  2  0  0  0  0
 11 13  1  0  0  0  0
 13 18  1  0  0  0  0
 13 14  2  0  0  0  0
 14 15  1  0  0  0  0
 14 38  1  0  0  0  0
 15 16  2  0  0  0  0
 15 17  1  0  0  0  0
 17 18  1  0  0  0  0
 17 30  1  0  0  0  0
 18 19  1  1  0  0  0
 18 20  1  0  0  0  0
 20 25  2  0  0  0  0
 20 21  1  0  0  0  0
 21 22  2  0  0  0  0
 21 50  1  0  0  0  0
 22 23  1  0  0  0  0
 22 51  1  0  0  0  0
 23 24  2  0  0  0  0
 23 29  1  0  0  0  0
 24 25  1  0  0  0  0
 24 26  1  0  0  0  0
 25 52  1  0  0  0  0
 26 27  1  0  0  0  0
 27 28  1  0  0  0  0
 27 53  1  0  0  0  0
 27 54  1  0  0  0  0
 28 55  1  0  0  0  0
 28 56  1  0  0  0  0
 28 57  1  0  0  0  0
 29 58  1  0  0  0  0
 30 31  1  0  0  0  0
 30 59  1  0  0  0  0
 30 60  1  0  0  0  0
 31 32  1  0  0  0  0
 31 61  1  0  0  0  0
 31 62  1  0  0  0  0
 32 37  1  0  0  0  0
 32 33  1  0  0  0  0
 33 34  1  0  0  0  0
 33 63  1  0  0  0  0
 33 64  1  0  0  0  0
 34 35  1  0  0  0  0
 34 65  1  0  0  0  0
 34 66  1  0  0  0  0
 35 36  1  0  0  0  0
 36 37  1  0  0  0  0
 36 67  1  0  0  0  0
 36 68  1  0  0  0  0
 37 69  1  0  0  0  0
 37 70  1  0  0  0  0
M  CHG  1  38  -1
M  END
$$$$
ZINC50006374
 OpenBabel01252620473D

 41 43  0  0  0  0  0  0  0  0999 V2000
   -0.0184    1.5028    0.0103 C   0  0  0  0  0  0  0  0  0  0  0  0
    0.0021   -0.0041    0.0020 C   0  0  0  0  0  0  0  0  0  0  0  0
   -1.0421   -0.8718    0.0018 C   0  0  0  0  0  0  0  0  0  0  0  0
   -0.7893   -2.2262   -0.0067 C   0  0  0  0  0  0  0  0  0  0  0  0
    0.5116   -2.6529   -0.0146 C   0  0  0  0  0  0  0  0  0  0  0  0
    1.4054   -1.1073   -0.0179 S   0  0  0  0  0  0  0  0  0  0  0  0
    1.0389   -4.0341   -0.0236 C   0  0  0  0  0  0  0  0  0  0  0  0
    2.3369   -4.3747   -0.0311 N   0  0  0  0  0  0  0  0  0  0  0  0
    2.4503   -5.6832   -0.0380 C   0  0  0  0  0  0  0  0  0  0  0  0
    1.2083   -6.2128   -0.0350 N   0  0  0  0  0  2  0  0  0  0  0  0
    0.3127   -5.1315   -0.0200 N   0  0  0  0  0  0  0  0  0  0  0  0
    3.6401   -6.3974   -0.0472 N   0  0  0  0  0  0  0  0  0  0  0  0
    3.6172   -7.7450   -0.0536 C   0  0  0  0  0  0  0  0  0  0  0  0
    2.5568   -8.3334   -0.0513 O   0  0  0  0  0  0  0  0  0  0  0  0
    4.9092   -8.5206   -0.0636 C   0  0  0  0  0  0  0  0  0  0  0  0
    4.6170   -9.9561   -0.0691 N   0  0  0  0  0  0  0  0  0  0  0  0
    4.3565  -10.6457   -1.3351 C   0  0  0  0  0  0  0  0  0  0  0  0
    4.5813  -10.7993    1.3557 S   0  0  0  0  0  0  0  0  0  0  0  0
    4.8387  -12.1583    1.0300 O   0  0  0  0  0  0  0  0  0  0  0  0
    5.3813  -10.0723    2.2780 O   0  0  0  0  0  0  0  0  0  0  0  0
    2.9277  -10.7309    1.9602 C   0  0  0  0  0  0  0  0  0  0  0  0
    2.5277   -9.6989    2.7958 C   0  0  0  0  0  0  0  0  0  0  0  0
    1.2170   -9.6857    3.2471 C   0  0  0  0  0  0  0  0  0  0  0  0
    0.3585  -10.6944    2.8521 C   0  0  0  0  0  0  0  0  0  0  0  0
    0.7737  -11.6606    2.0566 N   0  0  0  0  0  0  0  0  0  0  0  0
    2.0115  -11.7017    1.6031 C   0  0  0  0  0  0  0  0  0  0  0  0
    1.0042    1.8801    0.0026 H   0  0  0  0  0  0  0  0  0  0  0  0
   -0.5455    1.8639   -0.8728 H   0  0  0  0  0  0  0  0  0  0  0  0
   -0.5286    1.8543    0.9071 H   0  0  0  0  0  0  0  0  0  0  0  0
   -2.0579   -0.5051    0.0085 H   0  0  0  0  0  0  0  0  0  0  0  0
   -1.6018   -2.9377   -0.0067 H   0  0  0  0  0  0  0  0  0  0  0  0
    4.4883   -5.9268   -0.0490 H   0  0  0  0  0  0  0  0  0  0  0  0
    5.4809   -8.2627   -0.9551 H   0  0  0  0  0  0  0  0  0  0  0  0
    5.4895   -8.2713    0.8248 H   0  0  0  0  0  0  0  0  0  0  0  0
    5.2946  -11.0205   -1.7445 H   0  0  0  0  0  0  0  0  0  0  0  0
    3.6769  -11.4800   -1.1612 H   0  0  0  0  0  0  0  0  0  0  0  0
    3.9040   -9.9498   -2.0415 H   0  0  0  0  0  0  0  0  0  0  0  0
    3.2209   -8.9241    3.0882 H   0  0  0  0  0  0  0  0  0  0  0  0
    0.8712   -8.8975    3.8994 H   0  0  0  0  0  0  0  0  0  0  0  0
   -0.6642  -10.6914    3.1993 H   0  0  0  0  0  0  0  0  0  0  0  0
    2.3138  -12.5060    0.9489 H   0  0  0  0  0  0  0  0  0  0  0  0
  1  2  1  0  0  0  0
  1 27  1  0  0  0  0
  1 28  1  0  0  0  0
  1 29  1  0  0  0  0
  2  6  1  0  0  0  0
  2  3  2  0  0  0  0
  3  4  1  0  0  0  0
  3 30  1  0  0  0  0
  4  5  2  0  0  0  0
  4 31  1  0  0  0  0
  5  6  1  0  0  0  0
  5  7  1  0  0  0  0
  7  8  1  0  0  0  0
  7 11  2  0  0  0  0
  8  9  2  0  0  0  0
  9 12  1  0  0  0  0
  9 10  1  0  0  0  0
 10 11  1  0  0  0  0
 12 13  1  0  0  0  0
 12 32  1  0  0  0  0
 13 14  2  0  0  0  0
 13 15  1  0  0  0  0
 15 16  1  0  0  0  0
 15 33  1  0  0  0  0
 15 34  1  0  0  0  0
 16 17  1  0  0  0  0
 16 18  1  0  0  0  0
 17 35  1  0  0  0  0
 17 36  1  0  0  0  0
 17 37  1  0  0  0  0
 18 19  2  0  0  0  0
 18 20  2  0  0  0  0
 18 21  1  0  0  0  0
 21 26  2  0  0  0  0
 21 22  1  0  0  0  0
 22 23  2  0  0  0  0
 22 38  1  0  0  0  0
 23 24  1  0  0  0  0
 23 39  1  0  0  0  0
 24 25  2  0  0  0  0
 24 40  1  0  0  0  0
 25 26  1  0  0  0  0
 26 41  1  0  0  0  0
M  END
$$$$
ZINC40092363
 OpenBabel01252620473D

 61 63  0  0  1  0  0  0  0  0999 V2000
   -1.1502    1.7460   -0.3331 C   0  0  0  0  0  0  0  0  0  0  0  0
   -1.3758    0.2517   -0.5720 C   0  0  0  0  0  0  0  0  0  0  0  0
   -0.2854   -0.2867   -1.5005 C   0  0  0  0  0  0  0  0  0  0  0  0
   -0.5110   -1.7810   -1.7394 C   0  0  0  0  0  0  0  0  0  0  0  0
    0.5330   -2.2964   -2.6284 N   0  0  0  0  0  0  0  0  0  0  0  0
    0.4741   -2.3423   -4.0942 C   0  0  2  0  0  0  0  0  0  0  0  0
   -0.3628   -2.9618   -4.4164 H   0  0  0  0  0  0  0  0  0  0  0  0
    1.7786   -2.9540   -4.5492 C   0  0  0  0  0  0  0  0  0  0  0  0
    2.4947   -3.2222   -3.4327 C   0  0  0  0  0  0  0  0  0  0  0  0
    1.7179   -2.8063   -2.2460 C   0  0  0  0  0  0  0  0  0  0  0  0
    2.0928   -2.9118   -1.0952 O   0  0  0  0  0  0  0  0  0  0  0  0
    3.7277   -3.7786   -3.4070 O   0  5  0  0  0  0  0  0  0  0  0  0
    2.1895   -3.2080   -5.9337 C   0  0  0  0  0  0  0  0  0  0  0  0
    3.1309   -2.6014   -6.4101 O   0  0  0  0  0  0  0  0  0  0  0  0
    1.4613   -4.1995   -6.7496 C   0  0  0  0  0  0  0  0  0  0  0  0
    0.4094   -4.9314   -6.1898 C   0  0  0  0  0  0  0  0  0  0  0  0
   -0.2670   -5.8550   -6.9540 C   0  0  0  0  0  0  0  0  0  0  0  0
    0.0947   -6.0610   -8.2810 C   0  0  0  0  0  0  0  0  0  0  0  0
    1.1399   -5.3355   -8.8414 C   0  0  0  0  0  0  0  0  0  0  0  0
    1.8176   -4.4053   -8.0857 C   0  0  0  0  0  0  0  0  0  0  0  0
    1.5278   -5.5634  -10.2797 C   0  0  0  0  0  0  0  0  0  0  0  0
   -0.5741   -6.9731   -9.0307 O   0  0  0  0  0  0  0  0  0  0  0  0
   -1.5619   -7.7619   -8.3642 C   0  0  0  0  0  0  0  0  0  0  0  0
   -2.1105   -8.7912   -9.3184 C   0  0  0  0  0  0  0  0  0  0  0  0
   -2.2654  -10.0314   -8.9259 C   0  0  0  0  0  0  0  0  0  0  0  0
    0.3315   -0.9492   -4.6509 C   0  0  0  0  0  0  0  0  0  0  0  0
    1.1690    0.0587   -4.2103 C   0  0  0  0  0  0  0  0  0  0  0  0
    1.0422    1.3383   -4.7179 C   0  0  0  0  0  0  0  0  0  0  0  0
    0.0744    1.6129   -5.6707 C   0  0  0  0  0  0  0  0  0  0  0  0
   -0.7683    0.5983   -6.1145 C   0  0  0  0  0  0  0  0  0  0  0  0
   -0.6327   -0.6832   -5.6052 C   0  0  0  0  0  0  0  0  0  0  0  0
   -1.7197    0.8628   -7.0496 O   0  0  0  0  0  0  0  0  0  0  0  0
   -2.6162   -0.1993   -7.3814 C   0  0  0  0  0  0  0  0  0  0  0  0
   -0.0520    2.8712   -6.1708 O   0  0  0  0  0  0  0  0  0  0  0  0
   -0.1738    1.8970    0.1273 H   0  0  0  0  0  0  0  0  0  0  0  0
   -1.1891    2.2760   -1.2847 H   0  0  0  0  0  0  0  0  0  0  0  0
   -1.9270    2.1296    0.3284 H   0  0  0  0  0  0  0  0  0  0  0  0
   -1.3369   -0.2783    0.3797 H   0  0  0  0  0  0  0  0  0  0  0  0
   -2.3522    0.1007   -1.0323 H   0  0  0  0  0  0  0  0  0  0  0  0
   -0.3243    0.2434   -2.4521 H   0  0  0  0  0  0  0  0  0  0  0  0
    0.6910   -0.1357   -1.0401 H   0  0  0  0  0  0  0  0  0  0  0  0
   -0.4722   -2.3110   -0.7877 H   0  0  0  0  0  0  0  0  0  0  0  0
   -1.4874   -1.9319   -2.1997 H   0  0  0  0  0  0  0  0  0  0  0  0
    0.1283   -4.7725   -5.1592 H   0  0  0  0  0  0  0  0  0  0  0  0
   -1.0795   -6.4207   -6.5225 H   0  0  0  0  0  0  0  0  0  0  0  0
    2.6265   -3.8389   -8.5231 H   0  0  0  0  0  0  0  0  0  0  0  0
    0.9582   -4.8903  -10.9206 H   0  0  0  0  0  0  0  0  0  0  0  0
    2.5930   -5.3687  -10.4039 H   0  0  0  0  0  0  0  0  0  0  0  0
    1.3126   -6.5959  -10.5548 H   0  0  0  0  0  0  0  0  0  0  0  0
   -1.1095   -8.2639   -7.5089 H   0  0  0  0  0  0  0  0  0  0  0  0
   -2.3708   -7.1170   -8.0209 H   0  0  0  0  0  0  0  0  0  0  0  0
   -2.3760   -8.5065  -10.3258 H   0  0  0  0  0  0  0  0  0  0  0  0
   -1.9999  -10.3162   -7.9186 H   0  0  0  0  0  0  0  0  0  0  0  0
   -2.6586  -10.7691   -9.6098 H   0  0  0  0  0  0  0  0  0  0  0  0
    1.9238   -0.1540   -3.4676 H   0  0  0  0  0  0  0  0  0  0  0  0
    1.6972    2.1240   -4.3715 H   0  0  0  0  0  0  0  0  0  0  0  0
   -1.2829   -1.4733   -5.9507 H   0  0  0  0  0  0  0  0  0  0  0  0
   -3.2109   -0.4597   -6.5058 H   0  0  0  0  0  0  0  0  0  0  0  0
   -3.2767    0.1211   -8.1871 H   0  0  0  0  0  0  0  0  0  0  0  0
   -2.0448   -1.0696   -7.7044 H   0  0  0  0  0  0  0  0  0  0  0  0
    0.4866    3.0382   -6.9563 H   0  0  0  0  0  0  0  0  0  0  0  0
  1  2  1  0  0  0  0
  1 35  1  0  0  0  0
  1 36  1  0  0  0  0
  1 37  1  0  0  0  0
  2  3  1  0  0  0  0
  2 38  1  0  0  0  0
  2 39  1  0  0  0  0
  3  4  1  0  0  0  0
  3 40  1  0  0  0  0
  3 41  1  0  0  0  0
  4  5  1  0  0  0  0
  4 42  1  0  0  0  0
  4 43  1  0  0  0  0
  5 10  1  0  0  0  0
  5  6  1  0  0  0  0
  6  7  1  6  0  0  0
  6  8  1  0  0  0  0
  6 26  1  0  0  0  0
  8  9  2  0  0  0  0
  8 13  1  0  0  0  0
  9 10  1  0  0  0  0
  9 12  1  0  0  0  0
 10 11  2  0  0  0  0
 13 14  2  0  0  0  0
 13 15  1  0  0  0  0
 15 20  2  0  0  0  0
 15 16  1  0  0  0  0
 16 17  2  0  0  0  0
 16 44  1  0  0  0  0
 17 18  1  0  0  0  0
 17 45  1  0  0  0  0
 18 19  2  0  0  0  0
 18 22  1  0  0  0  0
 19 20  1  0  0  0  0
 19 21  1  0  0  0  0
 20 46  1  0  0  0  0
 21 47  1  0  0  0  0
 21 48  1  0  0  0  0
 21 49  1  0  0  0  0
 22 23  1  0  0  0  0
 23 24  1  0  0  0  0
 23 50  1  0  0  0  0
 23 51  1  0  0  0  0
 24 25  2  0  0  0  0
 24 52  1  0  0  0  0
 25 53  1  0  0  0  0
 25 54  1  0  0  0  0
 26 31  2  0  0  0  0
 26 27  1  0  0  0  0
 27 28  2  0  0  0  0
 27 55  1  0  0  0  0
 28 29  1  0  0  0  0
 28 56  1  0  0  0  0
 29 30  2  0  0  0  0
 29 34  1  0  0  0  0
 30 31  1  0  0  0  0
 30 32  1  0  0  0  0
 31 57  1  0  0  0  0
 32 33  1  0  0  0  0
 33 58  1  0  0  0  0
 33 59  1  0  0  0  0
 33 60  1  0  0  0  0
 34 61  1  0  0  0  0
M  CHG  1  12  -1
M  END
$$$$
ZINC13233009
 OpenBabel01252620473D

 51 53  0  0  1  0  0  0  0  0999 V2000
   -0.0127    1.0858    0.0080 C   0  0  0  0  0  0  0  0  0  0  0  0
   -0.7288    1.5792    1.2668 C   0  0  1  0  0  0  0  0  0  0  0  0
   -0.7436    2.6691    1.2728 H   0  0  0  0  0  0  0  0  0  0  0  0
   -2.1427    1.0576    1.2775 C   0  0  0  0  0  0  0  0  0  0  0  0
   -2.5370    0.3625    0.3713 O   0  0  0  0  0  0  0  0  0  0  0  0
   -0.0203    1.0939    2.4537 N   0  0  0  0  0  0  0  0  0  0  0  0
    0.5590    1.8533    3.4460 C   0  0  0  0  0  0  0  0  0  0  0  0
    1.0809    1.0163    4.3155 N   0  0  0  0  0  0  0  0  0  0  0  0
    0.8772   -0.1943    3.9357 N   0  0  0  0  0  0  0  0  0  0  0  0
    0.2093   -0.2075    2.8047 C   0  0  0  0  0  0  0  0  0  0  0  0
   -0.2972   -1.6366    1.9071 S   0  0  0  0  0  0  0  0  0  0  0  0
    0.3614   -2.9339    2.9839 C   0  0  0  0  0  0  0  0  0  0  0  0
    0.0383   -4.2845    2.3988 C   0  0  0  0  0  0  0  0  0  0  0  0
   -0.5767   -4.3624    1.3563 O   0  0  0  0  0  0  0  0  0  0  0  0
    0.4328   -5.4059    3.0338 N   0  0  0  0  0  0  0  0  0  0  0  0
    0.1324   -6.6615    2.4898 N   0  0  0  0  0  0  0  0  0  0  0  0
    0.5269   -7.7829    3.1249 C   0  0  0  0  0  0  0  0  0  0  0  0
    1.1418   -7.7051    4.1674 O   0  0  0  0  0  0  0  0  0  0  0  0
    0.2038   -9.1336    2.5398 C   0  0  0  0  0  0  0  0  0  0  0  0
    0.7605  -10.2301    3.4500 C   0  0  1  0  0  0  0  0  0  0  0  0
    1.8278  -10.0680    3.6007 H   0  0  0  0  0  0  0  0  0  0  0  0
    0.0412  -10.1803    4.8082 C   0  0  0  0  0  0  0  0  0  0  0  0
    0.3915  -11.4786    5.5898 C   0  0  0  0  0  0  0  0  0  0  0  0
    0.3072  -12.7221    4.2328 S   0  0  0  0  0  0  0  0  0  0  0  0
   -1.0029  -13.2706    4.1891 O   0  0  0  0  0  0  0  0  0  0  0  0
    1.4270  -13.5914    4.3322 O   0  0  0  0  0  0  0  0  0  0  0  0
    0.5392  -11.6106    2.7860 C   0  0  0  0  0  0  0  0  0  0  0  0
    0.5859    3.3229    3.5207 C   0  0  0  0  0  0  0  0  0  0  0  0
    0.8891    4.1290    4.5888 C   0  0  0  0  0  0  0  0  0  0  0  0
    0.8468    5.4946    4.4187 C   0  0  0  0  0  0  0  0  0  0  0  0
    0.5080    6.0008    3.2048 C   0  0  0  0  0  0  0  0  0  0  0  0
    0.2401    4.5210    2.2429 S   0  0  0  0  0  0  0  0  0  0  0  0
    0.0021   -0.0041    0.0020 H   0  0  0  0  0  0  0  0  0  0  0  0
    1.0099    1.4631    0.0003 H   0  0  0  0  0  0  0  0  0  0  0  0
   -0.5399    1.4469   -0.8751 H   0  0  0  0  0  0  0  0  0  0  0  0
    1.4426   -2.8230    3.0669 H   0  0  0  0  0  0  0  0  0  0  0  0
   -0.0895   -2.8490    3.9727 H   0  0  0  0  0  0  0  0  0  0  0  0
    0.9246   -5.3436    3.8676 H   0  0  0  0  0  0  0  0  0  0  0  0
   -0.3594   -6.7238    1.6561 H   0  0  0  0  0  0  0  0  0  0  0  0
   -0.8774   -9.2444    2.4568 H   0  0  0  0  0  0  0  0  0  0  0  0
    0.6547   -9.2185    1.5510 H   0  0  0  0  0  0  0  0  0  0  0  0
    0.3775   -9.3096    5.3711 H   0  0  0  0  0  0  0  0  0  0  0  0
   -1.0362  -10.1238    4.6523 H   0  0  0  0  0  0  0  0  0  0  0  0
   -0.3498  -11.6863    6.3615 H   0  0  0  0  0  0  0  0  0  0  0  0
    1.3943  -11.4250    6.0137 H   0  0  0  0  0  0  0  0  0  0  0  0
   -0.3531  -11.5998    2.1600 H   0  0  0  0  0  0  0  0  0  0  0  0
    1.4134  -11.9048    2.2053 H   0  0  0  0  0  0  0  0  0  0  0  0
    1.1552    3.7009    5.5439 H   0  0  0  0  0  0  0  0  0  0  0  0
    1.0806    6.1553    5.2405 H   0  0  0  0  0  0  0  0  0  0  0  0
    0.4262    7.0333    2.8988 H   0  0  0  0  0  0  0  0  0  0  0  0
   -2.9638    1.3652    2.2938 O   0  0  0  0  0  1  0  0  0  0  0  0
  1  2  1  0  0  0  0
  1 33  1  0  0  0  0
  1 34  1  0  0  0  0
  1 35  1  0  0  0  0
  2  3  1  1  0  0  0
  2  4  1  0  0  0  0
  2  6  1  0  0  0  0
  4  5  2  0  0  0  0
  4 51  1  0  0  0  0
  6 10  1  0  0  0  0
  6  7  1  0  0  0  0
  7  8  2  0  0  0  0
  7 28  1  0  0  0  0
  8  9  1  0  0  0  0
  9 10  2  0  0  0  0
 10 11  1  0  0  0  0
 11 12  1  0  0  0  0
 12 13  1  0  0  0  0
 12 36  1  0  0  0  0
 12 37  1  0  0  0  0
 13 14  2  0  0  0  0
 13 15  1  0  0  0  0
 15 16  1  0  0  0  0
 15 38  1  0  0  0  0
 16 17  1  0  0  0  0
 16 39  1  0  0  0  0
 17 18  2  0  0  0  0
 17 19  1  0  0  0  0
 19 20  1  0  0  0  0
 19 40  1  0  0  0  0
 19 41  1  0  0  0  0
 20 21  1  1  0  0  0
 20 27  1  0  0  0  0
 20 22  1  0  0  0  0
 22 23  1  0  0  0  0
 22 42  1  0  0  0  0
 22 43  1  0  0  0  0
 23 24  1  0  0  0  0
 23 44  1  0  0  0  0
 23 45  1  0  0  0  0
 24 25  2  0  0  0  0
 24 26  2  0  0  0  0
 24 27  1  0  0  0  0
 27 46  1  0  0  0  0
 27 47  1  0  0  0  0
 28 32  1  0  0  0  0
 28 29  2  0  0  0  0
 29 30  1  0  0  0  0
 29 48  1  0  0  0  0
 30 31  2  0  0  0  0
 30 49  1  0  0  0  0
 31 32  1  0  0  0  0
 31 50  1  0  0  0  0
M  END
$$$$
ZINC48869596
 OpenBabel01252620473D

 34 35  0  0  0  0  0  0  0  0999 V2000
    0.3635    0.7731    2.8977 C   0  0  0  0  0  0  0  0  0  0  0  0
    0.3007   -0.3848    1.9352 C   0  0  0  0  0  0  0  0  0  0  0  0
   -0.7771   -0.7411    1.2031 C   0  0  0  0  0  0  0  0  0  0  0  0
   -0.4093   -1.8650    0.4454 C   0  0  0  0  0  0  0  0  0  0  0  0
    0.8933   -2.1410    0.7587 C   0  0  0  0  0  0  0  0  0  0  0  0
    1.3076   -1.2274    1.6605 O   0  0  0  0  0  0  0  0  0  0  0  0
    1.6968   -3.2304    0.2084 C   0  0  0  0  0  0  0  0  0  0  0  0
    2.9885   -3.0139   -0.1303 C   0  0  0  0  0  0  0  0  0  0  0  0
    3.5280   -1.6536   -0.1256 C   0  0  0  0  0  0  0  0  0  0  0  0
    2.7052   -0.5997    0.0874 O   0  5  0  0  0  0  0  0  0  0  0  0
    4.8038   -1.4561   -0.3269 N   0  0  0  0  0  0  0  0  0  0  0  0
    5.4143    0.0832   -0.3216 S   0  0  0  0  0  0  0  0  0  0  0  0
    4.8536    0.7464   -1.4464 O   0  0  0  0  0  0  0  0  0  0  0  0
    5.2669    0.5740    1.0037 O   0  0  0  0  0  0  0  0  0  0  0  0
    7.0417   -0.0346   -0.6045 N   0  0  0  0  0  0  0  0  0  0  0  0
    8.0815   -0.1846    0.4241 C   0  0  0  0  0  0  0  0  0  0  0  0
    9.4423   -0.2263   -0.3027 C   0  0  0  0  0  0  0  0  0  0  0  0
    9.1356    0.4703   -1.6548 C   0  0  0  0  0  0  0  0  0  0  0  0
    7.6873   -0.0128   -1.9297 C   0  0  0  0  0  0  0  0  0  0  0  0
    1.3580    0.8234    3.3412 H   0  0  0  0  0  0  0  0  0  0  0  0
    0.1563    1.7007    2.3642 H   0  0  0  0  0  0  0  0  0  0  0  0
   -0.3782    0.6327    3.6840 H   0  0  0  0  0  0  0  0  0  0  0  0
   -1.7406   -0.2533    1.2007 H   0  0  0  0  0  0  0  0  0  0  0  0
   -1.0340   -2.4065   -0.2495 H   0  0  0  0  0  0  0  0  0  0  0  0
    1.2595   -4.2084    0.0721 H   0  0  0  0  0  0  0  0  0  0  0  0
    3.6215   -3.8450   -0.4041 H   0  0  0  0  0  0  0  0  0  0  0  0
    8.0521    0.6641    1.1075 H   0  0  0  0  0  0  0  0  0  0  0  0
    7.9269   -1.1123    0.9750 H   0  0  0  0  0  0  0  0  0  0  0  0
   10.1950    0.3301    0.2558 H   0  0  0  0  0  0  0  0  0  0  0  0
    9.7623   -1.2558   -0.4632 H   0  0  0  0  0  0  0  0  0  0  0  0
    9.1767    1.5549   -1.5536 H   0  0  0  0  0  0  0  0  0  0  0  0
    9.8150    0.1262   -2.4345 H   0  0  0  0  0  0  0  0  0  0  0  0
    7.6944   -1.0122   -2.3646 H   0  0  0  0  0  0  0  0  0  0  0  0
    7.1738    0.6858   -2.5903 H   0  0  0  0  0  0  0  0  0  0  0  0
  1  2  1  0  0  0  0
  1 20  1  0  0  0  0
  1 21  1  0  0  0  0
  1 22  1  0  0  0  0
  2  6  1  0  0  0  0
  2  3  2  0  0  0  0
  3  4  1  0  0  0  0
  3 23  1  0  0  0  0
  4  5  2  0  0  0  0
  4 24  1  0  0  0  0
  5  6  1  0  0  0  0
  5  7  1  0  0  0  0
  7  8  2  0  0  0  0
  7 25  1  0  0  0  0
  8  9  1  0  0  0  0
  8 26  1  0  0  0  0
  9 10  1  0  0  0  0
  9 11  2  0  0  0  0
 11 12  1  0  0  0  0
 12 13  2  0  0  0  0
 12 14  2  0  0  0  0
 12 15  1  0  0  0  0
 15 19  1  0  0  0  0
 15 16  1  0  0  0  0
 16 17  1  0  0  0  0
 16 27  1  0  0  0  0
 16 28  1  0  0  0  0
 17 18  1  0  0  0  0
 17 29  1  0  0  0  0
 17 30  1  0  0  0  0
 18 19  1  0  0  0  0
 18 31  1  0  0  0  0
 18 32  1  0  0  0  0
 19 33  1  0  0  0  0
 19 34  1  0  0  0  0
M  CHG  1  10  -1
M  END
$$$$
ZINC02615927
 OpenBabel01252620473D

 37 38  0  0  0  0  0  0  0  0999 V2000
   -4.8137   -0.7165    0.0435 C   0  0  0  0  0  0  0  0  0  0  0  0
   -3.4645   -1.4379    0.0266 C   0  0  0  0  0  0  0  0  0  0  0  0
   -2.3922   -0.4589    0.0221 O   0  0  0  0  0  0  0  0  0  0  0  0
   -1.1296   -0.9335    0.0074 C   0  0  0  0  0  0  0  0  0  0  0  0
   -0.9310   -2.1335   -0.0013 O   0  0  0  0  0  0  0  0  0  0  0  0
    0.0021   -0.0041    0.0020 C   0  0  0  0  0  0  0  0  0  0  0  0
    1.3373   -0.2875   -0.0122 C   0  0  0  0  0  0  0  0  0  0  0  0
    2.2683    0.7529   -0.0155 C   0  0  0  0  0  0  0  0  0  0  0  0
    3.7476    0.6852   -0.0296 C   0  0  0  0  0  0  0  0  0  0  0  0
    4.3239   -0.3879   -0.0411 O   0  0  0  0  0  0  0  0  0  0  0  0
    4.4395    1.8414   -0.0296 N   0  0  0  0  0  0  0  0  0  0  0  0
    5.4090    1.8146   -0.0387 H   0  0  0  0  0  0  0  0  0  0  0  0
    3.8087    3.0413   -0.0167 C   0  0  0  0  0  0  0  0  0  0  0  0
    2.5069    3.1366   -0.0038 N   0  0  0  0  0  0  0  0  0  0  0  0
    1.7306    2.0606   -0.0034 C   0  0  0  0  0  0  0  0  0  0  0  0
   -0.0221    1.7806    0.0118 S   0  0  0  0  0  0  0  0  0  0  0  0
    4.6345    4.3019   -0.0170 C   0  0  0  0  0  0  0  0  0  0  0  0
    3.5353    5.7449    0.0016 S   0  0  0  0  0  0  0  0  0  0  0  0
    2.8041    5.7686   -1.2166 O   0  0  0  0  0  0  0  0  0  0  0  0
    2.8266    5.7542    1.2333 O   0  0  0  0  0  0  0  0  0  0  0  0
    4.6998    7.1358   -0.0010 C   0  0  0  0  0  0  0  0  0  0  0  0
    3.9329    8.4330    0.0137 C   0  0  0  0  0  0  0  0  0  0  0  0
    2.7248    8.4204    0.0248 O   0  0  0  0  0  0  0  0  0  0  0  0
    1.8054   -1.7199   -0.0239 C   0  0  0  0  0  0  0  0  0  0  0  0
   -4.8834   -0.0972    0.9377 H   0  0  0  0  0  0  0  0  0  0  0  0
   -4.9002   -0.0870   -0.8421 H   0  0  0  0  0  0  0  0  0  0  0  0
   -5.6186   -1.4515    0.0469 H   0  0  0  0  0  0  0  0  0  0  0  0
   -3.3948   -2.0572   -0.8676 H   0  0  0  0  0  0  0  0  0  0  0  0
   -3.3780   -2.0674    0.9122 H   0  0  0  0  0  0  0  0  0  0  0  0
    5.2716    4.3191    0.8673 H   0  0  0  0  0  0  0  0  0  0  0  0
    5.2552    4.3295   -0.9126 H   0  0  0  0  0  0  0  0  0  0  0  0
    5.3352    7.0793    0.8829 H   0  0  0  0  0  0  0  0  0  0  0  0
    5.3188    7.0897   -0.8970 H   0  0  0  0  0  0  0  0  0  0  0  0
    1.9087   -2.0600   -1.0543 H   0  0  0  0  0  0  0  0  0  0  0  0
    2.7689   -1.7915    0.4807 H   0  0  0  0  0  0  0  0  0  0  0  0
    1.0770   -2.3444    0.4935 H   0  0  0  0  0  0  0  0  0  0  0  0
    4.5920    9.6023    0.0145 O   0  0  0  0  0  1  0  0  0  0  0  0
  1  2  1  0  0  0  0
  1 25  1  0  0  0  0
  1 26  1  0  0  0  0
  1 27  1  0  0  0  0
  2  3  1  0  0  0  0
  2 28  1  0  0  0  0
  2 29  1  0  0  0  0
  3  4  1  0  0  0  0
  4  5  2  0  0  0  0
  4  6  1  0  0  0  0
  6 16  1  0  0  0  0
  6  7  2  0  0  0  0
  7  8  1  0  0  0  0
  7 24  1  0  0  0  0
  8 15  2  0  0  0  0
  8  9  1  0  0  0  0
  9 10  2  0  0  0  0
  9 11  1  0  0  0  0
 11 12  1  0  0  0  0
 11 13  1  0  0  0  0
 13 14  2  0  0  0  0
 13 17  1  0  0  0  0
 14 15  1  0  0  0  0
 15 16  1  0  0  0  0
 17 18  1  0  0  0  0
 17 30  1  0  0  0  0
 17 31  1  0  0  0  0
 18 19  2  0  0  0  0
 18 20  2  0  0  0  0
 18 21  1  0  0  0  0
 21 22  1  0  0  0  0
 21 32  1  0  0  0  0
 21 33  1  0  0  0  0
 22 23  2  0  0  0  0
 22 37  1  0  0  0  0
 24 34  1  0  0  0  0
 24 35  1  0  0  0  0
 24 36  1  0  0  0  0
M  END
$$$$
ZINC37055496
 OpenBabel01252620473D

 29 30  0  0  0  0  0  0  0  0999 V2000
   -0.3025    1.2548    0.1495 C   0  0  0  0  0  0  0  0  0  0  0  0
    0.8157    2.0639    0.1147 C   0  0  0  0  0  0  0  0  0  0  0  0
    2.0864    1.4946    0.0335 C   0  0  0  0  0  0  0  0  0  0  0  0
    2.2229    0.1083   -0.0121 C   0  0  0  0  0  0  0  0  0  0  0  0
    1.0943   -0.6965    0.0235 C   0  0  0  0  0  0  0  0  0  0  0  0
   -0.1680   -0.1197    0.1044 C   0  0  0  0  0  0  0  0  0  0  0  0
    1.2256   -2.0865   -0.0225 N   0  0  0  0  0  0  0  0  0  0  0  0
    1.7393   -2.9143    1.3166 S   0  0  0  0  0  0  0  0  0  0  0  0
    1.7605   -4.2771    0.9144 O   0  0  0  0  0  0  0  0  0  0  0  0
    2.9354   -2.2572    1.7125 O   0  0  0  0  0  0  0  0  0  0  0  0
    0.4410   -2.6487    2.5554 C   0  0  0  0  0  0  0  0  0  0  0  0
    0.8693   -3.2730    3.8849 C   0  0  0  0  0  0  0  0  0  0  0  0
   -0.2093   -3.0523    4.9140 C   0  0  0  0  0  0  0  0  0  0  0  0
   -1.2262   -2.4513    4.6121 O   0  0  0  0  0  0  0  0  0  0  0  0
   -0.0649   -3.4747    6.0486 O   0  0  0  0  0  1  0  0  0  0  0  0
    3.2867    2.3604   -0.0045 C   0  0  0  0  0  0  0  0  0  0  0  0
    4.5567    1.9608   -0.0867 N   0  0  0  0  0  2  0  0  0  0  0  0
    5.2956    3.0173   -0.0934 N   0  0  0  0  0  0  0  0  0  0  0  0
    4.5455    4.0605   -0.0190 N   0  0  0  0  0  0  0  0  0  0  0  0
    3.3106    3.6936    0.0310 N   0  0  0  0  0  0  0  0  0  0  0  0
   -1.2853    1.6976    0.2168 H   0  0  0  0  0  0  0  0  0  0  0  0
    0.7064    3.1377    0.1498 H   0  0  0  0  0  0  0  0  0  0  0  0
    3.2045   -0.3377   -0.0753 H   0  0  0  0  0  0  0  0  0  0  0  0
   -1.0461   -0.7478    0.1323 H   0  0  0  0  0  0  0  0  0  0  0  0
    1.0159   -2.5668   -0.8387 H   0  0  0  0  0  0  0  0  0  0  0  0
    0.2817   -1.5789    2.6910 H   0  0  0  0  0  0  0  0  0  0  0  0
   -0.4848   -3.1139    2.2170 H   0  0  0  0  0  0  0  0  0  0  0  0
    1.0287   -4.3428    3.7493 H   0  0  0  0  0  0  0  0  0  0  0  0
    1.7951   -2.8078    4.2233 H   0  0  0  0  0  0  0  0  0  0  0  0
  1  6  2  0  0  0  0
  1  2  1  0  0  0  0
  1 21  1  0  0  0  0
  2  3  2  0  0  0  0
  2 22  1  0  0  0  0
  3  4  1  0  0  0  0
  3 16  1  0  0  0  0
  4  5  2  0  0  0  0
  4 23  1  0  0  0  0
  5  6  1  0  0  0  0
  5  7  1  0  0  0  0
  6 24  1  0  0  0  0
  7  8  1  0  0  0  0
  7 25  1  0  0  0  0
  8  9  2  0  0  0  0
  8 10  2  0  0  0  0
  8 11  1  0  0  0  0
 11 12  1  0  0  0  0
 11 26  1  0  0  0  0
 11 27  1  0  0  0  0
 12 13  1  0  0  0  0
 12 28  1  0  0  0  0
 12 29  1  0  0  0  0
 13 14  2  0  0  0  0
 13 15  1  0  0  0  0
 16 20  2  0  0  0  0
 16 17  1  0  0  0  0
 17 18  1  0  0  0  0
 18 19  2  0  0  0  0
 19 20  1  0  0  0  0
M  END
$$$$
ZINC40150298
 OpenBabel01252620473D

 45 46  0  0  0  0  0  0  0  0999 V2000
   -0.0187    1.5258    0.0104 C   0  0  0  0  0  0  0  0  0  0  0  0
    0.0021   -0.0041    0.0020 C   0  0  0  0  0  0  0  0  0  0  0  0
    0.6878   -0.4765   -1.2033 N   0  0  0  0  0  0  0  0  0  0  0  0
    2.1478   -0.5966   -1.2159 C   0  0  0  0  0  0  0  0  0  0  0  0
    2.5532   -1.9514   -0.6319 C   0  0  0  0  0  0  0  0  0  0  0  0
   -0.1875   -0.8749   -2.5515 S   0  0  0  0  0  0  0  0  0  0  0  0
    0.6099   -1.7823   -3.2999 O   0  0  0  0  0  0  0  0  0  0  0  0
   -1.4963   -1.2007   -2.1043 O   0  0  0  0  0  0  0  0  0  0  0  0
   -0.3372    0.5856   -3.5257 C   0  0  0  0  0  0  0  0  0  0  0  0
   -1.4070    1.4408   -3.3279 C   0  0  0  0  0  0  0  0  0  0  0  0
   -1.5323    2.5894   -4.0888 C   0  0  0  0  0  0  0  0  0  0  0  0
   -0.5898    2.8897   -5.0506 C   0  0  0  0  0  0  0  0  0  0  0  0
    0.4920    2.0317   -5.2549 C   0  0  0  0  0  0  0  0  0  0  0  0
    0.6152    0.8769   -4.4800 C   0  0  0  0  0  0  0  0  0  0  0  0
    1.5056    2.3471   -6.2834 C   0  0  0  0  0  0  0  0  0  0  0  0
    2.4467    1.5979   -6.4592 O   0  0  0  0  0  0  0  0  0  0  0  0
    1.3864    3.4652   -7.0264 N   0  0  0  0  0  0  0  0  0  0  0  0
    2.3408    3.7622   -7.9948 C   0  0  0  0  0  0  0  0  0  0  0  0
    3.4184    3.0860   -8.3405 N   0  0  0  0  0  0  0  0  0  0  0  0
    4.2370    3.5646   -9.3373 N   0  0  0  0  0  0  0  0  0  0  0  0
    3.9393    4.6988   -9.9428 C   0  0  0  0  0  0  0  0  0  0  0  0
    2.4287    5.1574   -9.1068 S   0  0  0  0  0  0  0  0  0  0  0  0
    4.6165    5.3571  -10.9610 N   0  0  0  0  0  2  0  0  0  0  0  0
    6.0111    4.7129  -11.5793 S   0  0  0  0  0  0  0  0  0  0  0  0
    6.9291    4.7271  -10.4947 O   0  0  0  0  0  0  0  0  0  0  0  0
    5.6112    3.4858  -12.1738 O   0  0  0  0  0  0  0  0  0  0  0  0
    6.5385    5.8849  -12.8595 C   0  0  0  0  0  0  0  0  0  0  0  0
    1.0039    1.9031    0.0027 H   0  0  0  0  0  0  0  0  0  0  0  0
   -0.5459    1.8868   -0.8726 H   0  0  0  0  0  0  0  0  0  0  0  0
   -0.5289    1.8773    0.9072 H   0  0  0  0  0  0  0  0  0  0  0  0
    0.5293   -0.3651    0.8851 H   0  0  0  0  0  0  0  0  0  0  0  0
   -1.0205   -0.3814    0.0098 H   0  0  0  0  0  0  0  0  0  0  0  0
    2.5098   -0.5199   -2.2412 H   0  0  0  0  0  0  0  0  0  0  0  0
    2.5833    0.2026   -0.6162 H   0  0  0  0  0  0  0  0  0  0  0  0
    3.6395   -2.0407   -0.6413 H   0  0  0  0  0  0  0  0  0  0  0  0
    2.1912   -2.0280    0.3934 H   0  0  0  0  0  0  0  0  0  0  0  0
    2.1177   -2.7506   -1.2316 H   0  0  0  0  0  0  0  0  0  0  0  0
   -2.1476    1.2104   -2.5764 H   0  0  0  0  0  0  0  0  0  0  0  0
   -2.3700    3.2522   -3.9299 H   0  0  0  0  0  0  0  0  0  0  0  0
   -0.6889    3.7865   -5.6442 H   0  0  0  0  0  0  0  0  0  0  0  0
    1.4520    0.2109   -4.6304 H   0  0  0  0  0  0  0  0  0  0  0  0
    0.6355    4.0630   -6.8861 H   0  0  0  0  0  0  0  0  0  0  0  0
    6.7110    6.8621  -12.4087 H   0  0  0  0  0  0  0  0  0  0  0  0
    7.4602    5.5294  -13.3201 H   0  0  0  0  0  0  0  0  0  0  0  0
    5.7610    5.9673  -13.6191 H   0  0  0  0  0  0  0  0  0  0  0  0
  1  2  1  0  0  0  0
  1 28  1  0  0  0  0
  1 29  1  0  0  0  0
  1 30  1  0  0  0  0
  2  3  1  0  0  0  0
  2 31  1  0  0  0  0
  2 32  1  0  0  0  0
  3  4  1  0  0  0  0
  3  6  1  0  0  0  0
  4  5  1  0  0  0  0
  4 33  1  0  0  0  0
  4 34  1  0  0  0  0
  5 35  1  0  0  0  0
  5 36  1  0  0  0  0
  5 37  1  0  0  0  0
  6  7  2  0  0  0  0
  6  8  2  0  0  0  0
  6  9  1  0  0  0  0
  9 14  2  0  0  0  0
  9 10  1  0  0  0  0
 10 11  2  0  0  0  0
 10 38  1  0  0  0  0
 11 12  1  0  0  0  0
 11 39  1  0  0  0  0
 12 13  2  0  0  0  0
 12 40  1  0  0  0  0
 13 14  1  0  0  0  0
 13 15  1  0  0  0  0
 14 41  1  0  0  0  0
 15 16  2  0  0  0  0
 15 17  1  0  0  0  0
 17 18  1  0  0  0  0
 17 42  1  0  0  0  0
 18 22  1  0  0  0  0
 18 19  2  0  0  0  0
 19 20  1  0  0  0  0
 20 21  2  0  0  0  0
 21 22  1  0  0  0  0
 21 23  1  0  0  0  0
 23 24  1  0  0  0  0
 24 25  2  0  0  0  0
 24 26  2  0  0  0  0
 24 27  1  0  0  0  0
 27 43  1  0  0  0  0
 27 44  1  0  0  0  0
 27 45  1  0  0  0  0
M  END
$$$$
ZINC62868583
 OpenBabel01252620473D

 37 38  0  0  1  0  0  0  0  0999 V2000
    0.8661    1.4003   -0.0265 C   0  0  0  0  0  0  0  0  0  0  0  0
    0.4871   -0.0582   -0.0175 C   0  0  0  0  0  0  0  0  0  0  0  0
    0.2005   -0.7063   -1.2238 C   0  0  0  0  0  0  0  0  0  0  0  0
   -0.1501   -2.0608   -1.2011 C   0  0  0  0  0  0  0  0  0  0  0  0
   -0.1990   -2.7067    0.0219 C   0  0  0  0  0  0  0  0  0  0  0  0
    0.1001   -1.9926    1.1804 C   0  0  0  0  0  0  0  0  0  0  0  0
    0.4344   -0.7088    1.1222 N   0  0  0  0  0  0  0  0  0  0  0  0
    0.0497   -2.6763    2.4944 C   0  0  0  0  0  0  0  0  0  0  0  0
   -0.0794   -3.8834    2.5466 O   0  0  0  0  0  0  0  0  0  0  0  0
    0.1471   -1.9592    3.6314 N   0  0  0  0  0  0  0  0  0  0  0  0
    0.1230   -0.4906    3.5945 C   0  0  0  0  0  0  0  0  0  0  0  0
   -0.9667    0.0087    4.5484 C   0  0  0  0  0  0  0  0  0  0  0  0
   -0.7299   -0.5813    5.9406 C   0  0  0  0  0  0  0  0  0  0  0  0
   -0.8120   -2.1079    5.8702 C   0  0  2  0  0  0  0  0  0  0  0  0
    0.2733   -2.6313    4.9318 C   0  0  0  0  0  0  0  0  0  0  0  0
   -2.1854   -2.5214    5.3375 C   0  0  0  0  0  0  0  0  0  0  0  0
   -0.6108   -2.6864    7.2471 C   0  0  0  0  0  0  0  0  0  0  0  0
   -1.1450   -3.7397    7.5498 O   0  0  0  0  0  0  0  0  0  0  0  0
    0.0861   -2.1011    8.0584 O   0  0  0  0  0  1  0  0  0  0  0  0
    0.2646    0.0065   -2.4641 C   0  0  0  0  0  0  0  0  0  0  0  0
    0.3155    0.5720   -3.4481 N   0  0  0  0  0  0  0  0  0  0  0  0
    1.9471    1.4941   -0.1302 H   0  0  0  0  0  0  0  0  0  0  0  0
    0.3763    1.8978   -0.8635 H   0  0  0  0  0  0  0  0  0  0  0  0
    0.5491    1.8639    0.9077 H   0  0  0  0  0  0  0  0  0  0  0  0
   -0.3773   -2.5890   -2.1153 H   0  0  0  0  0  0  0  0  0  0  0  0
   -0.4662   -3.7516    0.0778 H   0  0  0  0  0  0  0  0  0  0  0  0
    1.0910   -0.1012    3.9097 H   0  0  0  0  0  0  0  0  0  0  0  0
   -0.0962   -0.1541    2.5812 H   0  0  0  0  0  0  0  0  0  0  0  0
   -0.9313    1.0968    4.6036 H   0  0  0  0  0  0  0  0  0  0  0  0
   -1.9437   -0.3058    4.1814 H   0  0  0  0  0  0  0  0  0  0  0  0
    0.2573   -0.2867    6.2967 H   0  0  0  0  0  0  0  0  0  0  0  0
   -1.4897   -0.2080    6.6272 H   0  0  0  0  0  0  0  0  0  0  0  0
    0.1533   -3.7067    4.8005 H   0  0  0  0  0  0  0  0  0  0  0  0
    1.2539   -2.4203    5.3585 H   0  0  0  0  0  0  0  0  0  0  0  0
   -2.3294   -2.1037    4.3410 H   0  0  0  0  0  0  0  0  0  0  0  0
   -2.2434   -3.6087    5.2875 H   0  0  0  0  0  0  0  0  0  0  0  0
   -2.9617   -2.1464    6.0043 H   0  0  0  0  0  0  0  0  0  0  0  0
  1  2  1  0  0  0  0
  1 22  1  0  0  0  0
  1 23  1  0  0  0  0
  1 24  1  0  0  0  0
  2  7  2  0  0  0  0
  2  3  1  0  0  0  0
  3  4  2  0  0  0  0
  3 20  1  0  0  0  0
  4  5  1  0  0  0  0
  4 25  1  0  0  0  0
  5  6  2  0  0  0  0
  5 26  1  0  0  0  0
  6  7  1  0  0  0  0
  6  8  1  0  0  0  0
  8  9  2  0  0  0  0
  8 10  1  0  0  0  0
 10 15  1  0  0  0  0
 10 11  1  0  0  0  0
 11 12  1  0  0  0  0
 11 27  1  0  0  0  0
 11 28  1  0  0  0  0
 12 13  1  0  0  0  0
 12 29  1  0  0  0  0
 12 30  1  0  0  0  0
 13 14  1  0  0  0  0
 13 31  1  0  0  0  0
 13 32  1  0  0  0  0
 14 15  1  0  0  0  0
 14 16  1  0  0  0  0
 14 17  1  1  0  0  0
 15 33  1  0  0  0  0
 15 34  1  0  0  0  0
 16 35  1  0  0  0  0
 16 36  1  0  0  0  0
 16 37  1  0  0  0  0
 17 18  2  0  0  0  0
 17 19  1  0  0  0  0
 20 21  3  0  0  0  0
M  END
$$$$
ZINC23399172
 OpenBabel01252620473D

 43 45  0  0  1  0  0  0  0  0999 V2000
   -0.0127    1.0858    0.0080 C   0  0  0  0  0  0  0  0  0  0  0  0
   -0.7416    1.5850   -1.2129 C   0  0  0  0  0  0  0  0  0  0  0  0
   -2.0498    1.8242   -1.2839 N   0  0  0  0  0  0  0  0  0  0  0  0
   -2.3592    2.2515   -2.4958 C   0  0  0  0  0  0  0  0  0  0  0  0
   -1.1166    2.5590   -4.1509 H   0  0  0  0  0  0  0  0  0  0  0  0
   -1.2105    2.2869   -3.2246 N   0  0  0  0  0  0  0  0  0  0  0  0
   -0.1877    1.8558   -2.3644 N   0  0  0  0  0  0  0  0  0  0  0  0
   -3.5998    2.5931   -2.9347 N   0  0  0  0  0  0  0  0  0  0  0  0
   -4.6295    2.5121   -2.1223 C   0  0  0  0  0  0  0  0  0  0  0  0
   -4.4557    2.0899   -0.8529 O   0  5  0  0  0  0  0  0  0  0  0  0
   -5.8777    2.8558   -2.5638 N   0  0  0  0  0  0  0  0  0  0  0  0
   -6.0839    3.3116   -3.9453 C   0  0  0  0  0  0  0  0  0  0  0  0
   -7.1789    2.4551   -4.5889 C   0  0  0  0  0  0  0  0  0  0  0  0
   -8.4360    2.5021   -3.7173 C   0  0  2  0  0  0  0  0  0  0  0  0
   -8.1220    1.9258   -2.3347 C   0  0  0  0  0  0  0  0  0  0  0  0
   -7.0387    2.7705   -1.6674 C   0  0  0  0  0  0  0  0  0  0  0  0
   -9.5265    1.6881   -4.3647 C   0  0  0  0  0  0  0  0  0  0  0  0
   -9.3188    1.1258   -5.4191 O   0  0  0  0  0  0  0  0  0  0  0  0
  -10.7325    1.5848   -3.7721 N   0  0  0  0  0  0  0  0  0  0  0  0
  -11.7926    0.7935   -4.4015 C   0  0  0  0  0  0  0  0  0  0  0  0
  -13.0307    0.8396   -3.5434 C   0  0  0  0  0  0  0  0  0  0  0  0
  -14.0202    1.7458   -3.6383 C   0  0  0  0  0  0  0  0  0  0  0  0
  -14.9743    1.4156   -2.6485 C   0  0  0  0  0  0  0  0  0  0  0  0
  -14.5107    0.3273   -2.0081 C   0  0  0  0  0  0  0  0  0  0  0  0
  -13.3359   -0.0206   -2.5582 O   0  0  0  0  0  0  0  0  0  0  0  0
    0.0021   -0.0041    0.0020 H   0  0  0  0  0  0  0  0  0  0  0  0
    1.0099    1.4631    0.0003 H   0  0  0  0  0  0  0  0  0  0  0  0
   -0.5229    1.4373    0.9048 H   0  0  0  0  0  0  0  0  0  0  0  0
   -6.3918    4.3572   -3.9430 H   0  0  0  0  0  0  0  0  0  0  0  0
   -5.1568    3.2028   -4.5081 H   0  0  0  0  0  0  0  0  0  0  0  0
   -7.4091    2.8441   -5.5807 H   0  0  0  0  0  0  0  0  0  0  0  0
   -6.8327    1.4250   -4.6729 H   0  0  0  0  0  0  0  0  0  0  0  0
   -8.7674    3.5353   -3.6134 H   0  0  0  0  0  0  0  0  0  0  0  0
   -9.0236    1.9380   -1.7222 H   0  0  0  0  0  0  0  0  0  0  0  0
   -7.7670    0.9007   -2.4400 H   0  0  0  0  0  0  0  0  0  0  0  0
   -6.7414    2.3048   -0.7278 H   0  0  0  0  0  0  0  0  0  0  0  0
   -7.4263    3.7710   -1.4752 H   0  0  0  0  0  0  0  0  0  0  0  0
  -10.8986    2.0345   -2.9288 H   0  0  0  0  0  0  0  0  0  0  0  0
  -12.0172    1.2045   -5.3857 H   0  0  0  0  0  0  0  0  0  0  0  0
  -11.4614   -0.2397   -4.5062 H   0  0  0  0  0  0  0  0  0  0  0  0
  -14.0750    2.5683   -4.3361 H   0  0  0  0  0  0  0  0  0  0  0  0
  -15.8979    1.9372   -2.4454 H   0  0  0  0  0  0  0  0  0  0  0  0
  -15.0019   -0.1827   -1.1926 H   0  0  0  0  0  0  0  0  0  0  0  0
  1 26  1  0  0  0  0
  1 27  1  0  0  0  0
  1 28  1  0  0  0  0
  1  2  1  0  0  0  0
  2  3  1  0  0  0  0
  2  7  2  0  0  0  0
  3  4  2  0  0  0  0
  4  8  1  0  0  0  0
  4  6  1  0  0  0  0
  5  6  1  0  0  0  0
  6  7  1  0  0  0  0
  8  9  2  0  0  0  0
  9 10  1  0  0  0  0
  9 11  1  0  0  0  0
 11 16  1  0  0  0  0
 11 12  1  0  0  0  0
 12 13  1  0  0  0  0
 12 29  1  0  0  0  0
 12 30  1  0  0  0  0
 13 14  1  0  0  0  0
 13 31  1  0  0  0  0
 13 32  1  0  0  0  0
 14 15  1  0  0  0  0
 14 17  1  0  0  0  0
 14 33  1  1  0  0  0
 15 16  1  0  0  0  0
 15 34  1  0  0  0  0
 15 35  1  0  0  0  0
 16 36  1  0  0  0  0
 16 37  1  0  0  0  0
 17 18  2  0  0  0  0
 17 19  1  0  0  0  0
 19 20  1  0  0  0  0
 19 38  1  0  0  0  0
 20 21  1  0  0  0  0
 20 39  1  0  0  0  0
 20 40  1  0  0  0  0
 21 25  1  0  0  0  0
 21 22  2  0  0  0  0
 22 23  1  0  0  0  0
 22 41  1  0  0  0  0
 23 24  2  0  0  0  0
 23 42  1  0  0  0  0
 24 25  1  0  0  0  0
 24 43  1  0  0  0  0
M  CHG  1  10  -1
M  END
$$$$
ZINC45945507
 OpenBabel01252620473D

 36 37  0  0  0  0  0  0  0  0999 V2000
   -0.0187    1.5258    0.0104 C   0  0  0  0  0  0  0  0  0  0  0  0
    0.0021   -0.0041    0.0020 C   0  0  0  0  0  0  0  0  0  0  0  0
    0.7074   -0.4901   -1.2379 C   0  0  0  0  0  0  0  0  0  0  0  0
   -0.0269   -0.8167   -2.3646 C   0  0  0  0  0  0  0  0  0  0  0  0
    0.6117   -1.2625   -3.5026 C   0  0  0  0  0  0  0  0  0  0  0  0
    2.0038   -1.3837   -3.5165 C   0  0  0  0  0  0  0  0  0  0  0  0
    2.7385   -1.0517   -2.3756 C   0  0  0  0  0  0  0  0  0  0  0  0
    2.0865   -0.6022   -1.2461 C   0  0  0  0  0  0  0  0  0  0  0  0
    3.0115   -0.1766    0.1919 S   0  0  0  0  0  0  0  0  0  0  0  0
    2.3886   -0.8364    1.2854 O   0  0  0  0  0  0  0  0  0  0  0  0
    4.3810   -0.3696   -0.1344 O   0  0  0  0  0  0  0  0  0  0  0  0
    2.8088    1.4478    0.4415 N   0  0  0  0  0  2  0  0  0  0  0  0
    3.4345    2.0721    1.5249 C   0  0  0  0  0  0  0  0  0  0  0  0
    4.2310    1.3318    2.3891 C   0  0  0  0  0  0  0  0  0  0  0  0
    4.8480    1.9505    3.4585 C   0  0  0  0  0  0  0  0  0  0  0  0
    4.6732    3.3080    3.6696 C   0  0  0  0  0  0  0  0  0  0  0  0
    3.8794    4.0477    2.8098 C   0  0  0  0  0  0  0  0  0  0  0  0
    3.2652    3.4342    1.7352 C   0  0  0  0  0  0  0  0  0  0  0  0
    3.6936    5.4981    3.0385 N   0  0  0  0  0  4  0  0  0  0  0  0
    3.0005    6.1446    2.2879 O   0  0  0  0  0  0  0  0  0  0  0  0
    4.2349    6.0365    3.9760 O   0  5  0  0  0  0  0  0  0  0  0  0
    5.2777    3.9112    4.7164 F   0  0  0  0  0  0  0  0  0  0  0  0
    2.6942   -1.8604   -4.7300 C   0  0  0  0  0  0  0  0  0  0  0  0
    2.0482   -2.1506   -5.7270 O   0  0  0  0  0  0  0  0  0  0  0  0
    3.9126   -1.9654   -4.7389 O   0  0  0  0  0  1  0  0  0  0  0  0
    1.0039    1.9031    0.0027 H   0  0  0  0  0  0  0  0  0  0  0  0
   -0.5459    1.8868   -0.8726 H   0  0  0  0  0  0  0  0  0  0  0  0
   -0.5289    1.8773    0.9072 H   0  0  0  0  0  0  0  0  0  0  0  0
    0.5293   -0.3651    0.8851 H   0  0  0  0  0  0  0  0  0  0  0  0
   -1.0205   -0.3814    0.0098 H   0  0  0  0  0  0  0  0  0  0  0  0
   -1.1027   -0.7226   -2.3525 H   0  0  0  0  0  0  0  0  0  0  0  0
    0.0374   -1.5177   -4.3809 H   0  0  0  0  0  0  0  0  0  0  0  0
    3.8146   -1.1430   -2.3792 H   0  0  0  0  0  0  0  0  0  0  0  0
    4.3674    0.2731    2.2250 H   0  0  0  0  0  0  0  0  0  0  0  0
    5.4671    1.3752    4.1309 H   0  0  0  0  0  0  0  0  0  0  0  0
    2.6499    4.0126    1.0619 H   0  0  0  0  0  0  0  0  0  0  0  0
  1  2  1  0  0  0  0
  1 26  1  0  0  0  0
  1 27  1  0  0  0  0
  1 28  1  0  0  0  0
  2  3  1  0  0  0  0
  2 29  1  0  0  0  0
  2 30  1  0  0  0  0
  3  8  2  0  0  0  0
  3  4  1  0  0  0  0
  4  5  2  0  0  0  0
  4 31  1  0  0  0  0
  5  6  1  0  0  0  0
  5 32  1  0  0  0  0
  6  7  2  0  0  0  0
  6 23  1  0  0  0  0
  7  8  1  0  0  0  0
  7 33  1  0  0  0  0
  8  9  1  0  0  0  0
  9 10  2  0  0  0  0
  9 11  2  0  0  0  0
  9 12  1  0  0  0  0
 12 13  1  0  0  0  0
 13 18  2  0  0  0  0
 13 14  1  0  0  0  0
 14 15  2  0  0  0  0
 14 34  1  0  0  0  0
 15 16  1  0  0  0  0
 15 35  1  0  0  0  0
 16 17  2  0  0  0  0
 16 22  1  0  0  0  0
 17 18  1  0  0  0  0
 17 19  1  0  0  0  0
 18 36  1  0  0  0  0
 19 20  2  0  0  0  0
 19 21  1  0  0  0  0
 23 24  2  0  0  0  0
 23 25  1  0  0  0  0
M  CHG  1  21  -1
M  END
$$$$
ZINC20832525
 OpenBabel01252620473D

 44 47  0  0  0  0  0  0  0  0999 V2000
   -8.2582    2.2220   -2.7925 C   0  0  0  0  0  0  0  0  0  0  0  0
   -9.3987    2.0592   -3.5503 C   0  0  0  0  0  0  0  0  0  0  0  0
  -10.6259    1.8825   -2.9309 C   0  0  0  0  0  0  0  0  0  0  0  0
  -10.7132    1.8627   -1.5479 C   0  0  0  0  0  0  0  0  0  0  0  0
   -9.5781    2.0193   -0.7806 C   0  0  0  0  0  0  0  0  0  0  0  0
   -8.3396    2.1975   -1.3992 C   0  0  0  0  0  0  0  0  0  0  0  0
   -7.1196    2.3658   -0.5819 C   0  0  0  0  0  0  0  0  0  0  0  0
   -7.0549    2.3678    0.7291 N   0  0  0  0  0  0  0  0  0  0  0  0
   -5.8326    2.5381    1.0932 N   0  0  0  0  0  0  0  0  0  0  0  0
   -5.0752    2.6506    0.0381 C   0  0  0  0  0  0  0  0  0  0  0  0
   -5.8667    2.5501   -1.0439 O   0  0  0  0  0  0  0  0  0  0  0  0
   -3.5831    2.8618    0.0325 C   0  0  0  0  0  0  0  0  0  0  0  0
   -2.7466    1.2567    0.0210 S   0  0  0  0  0  0  0  0  0  0  0  0
   -1.1141    1.7722    0.0162 C   0  0  0  0  0  0  0  0  0  0  0  0
   -0.0111    0.9658    0.0074 N   0  0  0  0  0  0  0  0  0  0  0  0
    1.0751    1.8061    0.0015 C   0  0  0  0  0  0  0  0  0  0  0  0
    0.6056    3.0671    0.0119 N   0  0  0  0  0  0  0  0  0  0  0  0
   -0.6802    3.0480    0.0236 N   0  0  0  0  0  0  0  0  0  0  0  0
    2.3610    1.4392   -0.0117 N   0  0  0  0  0  0  0  0  0  0  0  0
    3.2878    2.3365   -0.0159 N   0  0  0  0  0  0  0  0  0  0  0  0
    4.5549    1.9749   -0.0288 C   0  0  0  0  0  0  0  0  0  0  0  0
    5.5727    2.9604   -0.0334 C   0  0  0  0  0  0  0  0  0  0  0  0
    6.9263    2.5813   -0.0472 C   0  0  0  0  0  0  0  0  0  0  0  0
    7.9011    3.5358   -0.0521 C   0  0  0  0  0  0  0  0  0  0  0  0
    7.5686    4.8846   -0.0434 C   0  0  0  0  0  0  0  0  0  0  0  0
    6.2457    5.2820   -0.0298 C   0  0  0  0  0  0  0  0  0  0  0  0
    5.2359    4.3320   -0.0300 C   0  0  0  0  0  0  0  0  0  0  0  0
    3.9365    4.7163   -0.0219 O   0  5  0  0  0  0  0  0  0  0  0  0
    9.3247    3.1309   -0.0671 N   0  0  0  0  0  4  0  0  0  0  0  0
    9.6460    1.8537   -0.0758 O   0  0  0  0  0  0  0  0  0  0  0  0
   10.2701    4.0478   -0.0718 O   0  5  0  0  0  0  0  0  0  0  0  0
  -11.7410    1.7287   -3.6780 F   0  0  0  0  0  0  0  0  0  0  0  0
   -7.3031    2.3645   -3.2761 H   0  0  0  0  0  0  0  0  0  0  0  0
   -9.3362    2.0739   -4.6284 H   0  0  0  0  0  0  0  0  0  0  0  0
  -11.6719    1.7247   -1.0702 H   0  0  0  0  0  0  0  0  0  0  0  0
   -9.6473    2.0044    0.2971 H   0  0  0  0  0  0  0  0  0  0  0  0
   -3.2967    3.4310   -0.8642 H   0  0  0  0  0  0  0  0  0  0  0  0
   -3.2887    3.4223    0.9321 H   0  0  0  0  0  0  0  0  0  0  0  0
    2.6284    0.3722   -0.0190 H   0  0  0  0  0  0  0  0  0  0  0  0
    4.8223    0.9079   -0.0360 H   0  0  0  0  0  0  0  0  0  0  0  0
    7.1944    1.5351   -0.0537 H   0  0  0  0  0  0  0  0  0  0  0  0
    8.3511    5.6289   -0.0477 H   0  0  0  0  0  0  0  0  0  0  0  0
    5.9979    6.3332   -0.0231 H   0  0  0  0  0  0  0  0  0  0  0  0
    1.3064    3.9150    0.0096 H   0  0  0  0  0  0  0  0  0  0  0  0
  1  6  2  0  0  0  0
  1  2  1  0  0  0  0
  1 33  1  0  0  0  0
  2  3  2  0  0  0  0
  2 34  1  0  0  0  0
  3  4  1  0  0  0  0
  3 32  1  0  0  0  0
  4  5  2  0  0  0  0
  4 35  1  0  0  0  0
  5  6  1  0  0  0  0
  5 36  1  0  0  0  0
  6  7  1  0  0  0  0
  7 11  1  0  0  0  0
  7  8  2  0  0  0  0
  8  9  1  0  0  0  0
  9 10  2  0  0  0  0
 10 11  1  0  0  0  0
 10 12  1  0  0  0  0
 12 13  1  0  0  0  0
 12 37  1  0  0  0  0
 12 38  1  0  0  0  0
 13 14  1  0  0  0  0
 14 18  2  0  0  0  0
 14 15  1  0  0  0  0
 15 16  2  0  0  0  0
 16 17  1  0  0  0  0
 16 19  1  0  0  0  0
 17 18  1  0  0  0  0
 17 44  1  0  0  0  0
 19 20  1  0  0  0  0
 19 39  1  0  0  0  0
 20 21  2  0  0  0  0
 21 22  1  0  0  0  0
 21 40  1  0  0  0  0
 22 27  2  0  0  0  0
 22 23  1  0  0  0  0
 23 24  2  0  0  0  0
 23 41  1  0  0  0  0
 24 25  1  0  0  0  0
 24 29  1  0  0  0  0
 25 26  2  0  0  0  0
 25 42  1  0  0  0  0
 26 27  1  0  0  0  0
 26 43  1  0  0  0  0
 27 28  1  0  0  0  0
 29 30  2  0  0  0  0
 29 31  1  0  0  0  0
M  CHG  2  28  -1  31  -1
M  END
$$$$
ZINC43509104
 OpenBabel01252620473D

 37 38  0  0  1  0  0  0  0  0999 V2000
   -0.0184    1.5028    0.0103 C   0  0  0  0  0  0  0  0  0  0  0  0
    0.0021   -0.0041    0.0020 C   0  0  0  0  0  0  0  0  0  0  0  0
    0.0060   -0.7067   -1.2060 C   0  0  0  0  0  0  0  0  0  0  0  0
    0.0254   -2.1168   -1.1524 C   0  0  0  0  0  0  0  0  0  0  0  0
    0.0389   -2.7109    0.0382 N   0  0  0  0  0  0  0  0  0  0  0  0
    0.0345   -2.0009    1.1467 C   0  0  0  0  0  0  0  0  0  0  0  0
    0.0221   -0.6811    1.1375 N   0  0  0  0  0  0  0  0  0  0  0  0
    0.0498   -2.7194    2.4713 C   0  0  0  0  0  0  0  0  0  0  0  0
    0.0309   -3.0719   -2.6330 S   0  0  0  0  0  0  0  0  0  0  0  0
    0.0570   -4.7887   -2.0476 C   0  0  0  0  0  0  0  0  0  0  0  0
   -0.0101    0.0037   -2.4975 C   0  0  0  0  0  0  0  0  0  0  0  0
    1.0363    0.3114   -3.0353 O   0  0  0  0  0  0  0  0  0  0  0  0
   -1.1845    0.3123   -3.0822 N   0  0  0  0  0  0  0  0  0  0  0  0
   -1.2005    1.0184   -4.3658 C   0  0  1  0  0  0  0  0  0  0  0  0
   -2.6454    1.1147   -4.8536 C   0  0  0  0  0  0  0  0  0  0  0  0
   -3.3048    2.4213   -4.3306 C   0  0  0  0  0  0  0  0  0  0  0  0
   -1.8818    3.5825   -4.5229 S   0  0  0  0  0  0  0  0  0  0  0  0
   -0.5210    2.3896   -4.1836 C   0  0  0  0  0  0  0  0  0  0  0  0
   -0.4090    0.2162   -5.3663 C   0  0  0  0  0  0  0  0  0  0  0  0
    0.0996   -0.8410   -5.0346 O   0  0  0  0  0  0  0  0  0  0  0  0
   -0.2772    0.6245   -6.5076 O   0  0  0  0  0  1  0  0  0  0  0  0
    1.0042    1.8801    0.0026 H   0  0  0  0  0  0  0  0  0  0  0  0
   -0.5455    1.8639   -0.8728 H   0  0  0  0  0  0  0  0  0  0  0  0
   -0.5286    1.8543    0.9071 H   0  0  0  0  0  0  0  0  0  0  0  0
    1.0811   -2.8790    2.7861 H   0  0  0  0  0  0  0  0  0  0  0  0
   -0.4687   -2.1172    3.2173 H   0  0  0  0  0  0  0  0  0  0  0  0
   -0.4518   -3.6817    2.3686 H   0  0  0  0  0  0  0  0  0  0  0  0
    0.0619   -5.4642   -2.9031 H   0  0  0  0  0  0  0  0  0  0  0  0
    0.9524   -4.9547   -1.4485 H   0  0  0  0  0  0  0  0  0  0  0  0
   -0.8274   -4.9788   -1.4396 H   0  0  0  0  0  0  0  0  0  0  0  0
   -2.0192    0.0669   -2.6532 H   0  0  0  0  0  0  0  0  0  0  0  0
   -2.6587    1.1153   -5.9435 H   0  0  0  0  0  0  0  0  0  0  0  0
   -3.2076    0.2555   -4.4878 H   0  0  0  0  0  0  0  0  0  0  0  0
   -4.1475    2.7186   -4.9549 H   0  0  0  0  0  0  0  0  0  0  0  0
   -3.6016    2.3261   -3.2861 H   0  0  0  0  0  0  0  0  0  0  0  0
   -0.1539    2.5046   -3.1637 H   0  0  0  0  0  0  0  0  0  0  0  0
    0.2893    2.5158   -4.9017 H   0  0  0  0  0  0  0  0  0  0  0  0
  1  2  1  0  0  0  0
  1 22  1  0  0  0  0
  1 23  1  0  0  0  0
  1 24  1  0  0  0  0
  2  7  2  0  0  0  0
  2  3  1  0  0  0  0
  3  4  2  0  0  0  0
  3 11  1  0  0  0  0
  4  5  1  0  0  0  0
  4  9  1  0  0  0  0
  5  6  2  0  0  0  0
  6  7  1  0  0  0  0
  6  8  1  0  0  0  0
  8 25  1  0  0  0  0
  8 26  1  0  0  0  0
  8 27  1  0  0  0  0
  9 10  1  0  0  0  0
 10 28  1  0  0  0  0
 10 29  1  0  0  0  0
 10 30  1  0  0  0  0
 11 12  2  0  0  0  0
 11 13  1  0  0  0  0
 13 14  1  0  0  0  0
 13 31  1  0  0  0  0
 14 18  1  0  0  0  0
 14 15  1  0  0  0  0
 14 19  1  6  0  0  0
 15 16  1  0  0  0  0
 15 32  1  0  0  0  0
 15 33  1  0  0  0  0
 16 17  1  0  0  0  0
 16 34  1  0  0  0  0
 16 35  1  0  0  0  0
 17 18  1  0  0  0  0
 18 36  1  0  0  0  0
 18 37  1  0  0  0  0
 19 20  2  0  0  0  0
 19 21  1  0  0  0  0
M  END
$$$$
ZINC35567225
 OpenBabel01252620473D

 54 57  0  0  1  0  0  0  0  0999 V2000
    0.1419    1.7977   -0.2957 C   0  0  0  0  0  0  0  0  0  0  0  0
    1.1749    0.7538   -0.6338 C   0  0  0  0  0  0  0  0  0  0  0  0
    1.0175   -0.1140   -1.7083 C   0  0  0  0  0  0  0  0  0  0  0  0
    2.5224   -1.0670   -1.5795 S   0  0  0  0  0  0  0  0  0  0  0  0
    3.1701   -0.2975   -0.2302 C   0  0  0  0  0  0  0  0  0  0  0  0
    2.2738    0.6167    0.0646 N   0  0  0  0  0  0  0  0  0  0  0  0
    4.4729   -0.5852    0.4707 C   0  0  0  0  0  0  0  0  0  0  0  0
   -0.0785   -0.2181   -2.6770 C   0  0  0  0  0  0  0  0  0  0  0  0
   -1.0718    0.4756   -2.5499 O   0  0  0  0  0  0  0  0  0  0  0  0
    0.0212   -1.1583   -3.7998 C   0  0  0  0  0  0  0  0  0  0  0  0
    0.1057   -0.8417   -5.1120 C   0  0  0  0  0  0  0  0  0  0  0  0
    0.1902   -2.0833   -5.9072 C   0  0  0  0  0  0  0  0  0  0  0  0
    0.2765   -2.1311   -7.1183 O   0  0  0  0  0  0  0  0  0  0  0  0
    0.1581   -3.1537   -5.0927 N   0  0  0  0  0  0  0  0  0  0  0  0
    0.0558   -2.6663   -3.7120 C   0  0  2  0  0  0  0  0  0  0  0  0
    0.9217   -2.9883   -3.1336 H   0  0  0  0  0  0  0  0  0  0  0  0
   -1.2117   -3.1778   -3.0774 C   0  0  0  0  0  0  0  0  0  0  0  0
   -1.4309   -3.5583   -1.7950 C   0  0  0  0  0  0  0  0  0  0  0  0
   -2.6900   -3.9988   -1.4324 C   0  0  0  0  0  0  0  0  0  0  0  0
   -3.6682   -4.0372   -2.3699 C   0  0  0  0  0  0  0  0  0  0  0  0
   -2.8163   -3.4323   -3.8175 S   0  0  0  0  0  0  0  0  0  0  0  0
    0.2195   -4.5568   -5.5096 C   0  0  0  0  0  0  0  0  0  0  0  0
    1.6794   -5.0123   -5.5538 C   0  0  0  0  0  0  0  0  0  0  0  0
    1.7435   -6.4776   -5.9892 C   0  0  0  0  0  0  0  0  0  0  0  0
    3.1453   -6.9150   -6.0317 N   0  0  0  0  0  0  0  0  0  0  0  0
    3.8853   -6.2102   -7.0886 C   0  0  0  0  0  0  0  0  0  0  0  0
    5.3511   -6.6510   -7.0586 C   0  0  0  0  0  0  0  0  0  0  0  0
    5.4195   -8.0720   -7.2051 O   0  0  0  0  0  0  0  0  0  0  0  0
    4.7100   -8.7900   -6.1919 C   0  0  0  0  0  0  0  0  0  0  0  0
    3.2377   -8.3709   -6.2132 C   0  0  0  0  0  0  0  0  0  0  0  0
    0.1118    0.4145   -5.6165 O   0  5  0  0  0  0  0  0  0  0  0  0
    0.3687    2.7199   -0.8307 H   0  0  0  0  0  0  0  0  0  0  0  0
   -0.8452    1.4406   -0.5896 H   0  0  0  0  0  0  0  0  0  0  0  0
    0.1549    1.9876    0.7775 H   0  0  0  0  0  0  0  0  0  0  0  0
    5.2651    0.0176    0.0268 H   0  0  0  0  0  0  0  0  0  0  0  0
    4.3785   -0.3392    1.5284 H   0  0  0  0  0  0  0  0  0  0  0  0
    4.7172   -1.6420    0.3638 H   0  0  0  0  0  0  0  0  0  0  0  0
   -0.6337   -3.5182   -1.0675 H   0  0  0  0  0  0  0  0  0  0  0  0
   -2.8912   -4.3080   -0.4174 H   0  0  0  0  0  0  0  0  0  0  0  0
   -4.6971   -4.3490   -2.2669 H   0  0  0  0  0  0  0  0  0  0  0  0
   -0.3316   -5.1717   -4.7980 H   0  0  0  0  0  0  0  0  0  0  0  0
   -0.2239   -4.6613   -6.4998 H   0  0  0  0  0  0  0  0  0  0  0  0
    2.2305   -4.3974   -6.2654 H   0  0  0  0  0  0  0  0  0  0  0  0
    2.1228   -4.9078   -4.5635 H   0  0  0  0  0  0  0  0  0  0  0  0
    1.1925   -7.0925   -5.2776 H   0  0  0  0  0  0  0  0  0  0  0  0
    1.3002   -6.5821   -6.9794 H   0  0  0  0  0  0  0  0  0  0  0  0
    3.4523   -6.4521   -8.0592 H   0  0  0  0  0  0  0  0  0  0  0  0
    3.8250   -5.1350   -6.9201 H   0  0  0  0  0  0  0  0  0  0  0  0
    5.8913   -6.1744   -7.8765 H   0  0  0  0  0  0  0  0  0  0  0  0
    5.7989   -6.3611   -6.1080 H   0  0  0  0  0  0  0  0  0  0  0  0
    4.7866   -9.8604   -6.3831 H   0  0  0  0  0  0  0  0  0  0  0  0
    5.1392   -8.5623   -5.2162 H   0  0  0  0  0  0  0  0  0  0  0  0
    2.7046   -8.8729   -5.4057 H   0  0  0  0  0  0  0  0  0  0  0  0
    2.7943   -8.6473   -7.1698 H   0  0  0  0  0  0  0  0  0  0  0  0
  1  2  1  0  0  0  0
  1 32  1  0  0  0  0
  1 33  1  0  0  0  0
  1 34  1  0  0  0  0
  2  6  1  0  0  0  0
  2  3  2  0  0  0  0
  3  4  1  0  0  0  0
  3  8  1  0  0  0  0
  4  5  1  0  0  0  0
  5  6  2  0  0  0  0
  5  7  1  0  0  0  0
  7 35  1  0  0  0  0
  7 36  1  0  0  0  0
  7 37  1  0  0  0  0
  8  9  2  0  0  0  0
  8 10  1  0  0  0  0
 10 15  1  0  0  0  0
 10 11  2  0  0  0  0
 11 12  1  0  0  0  0
 11 31  1  0  0  0  0
 12 13  2  0  0  0  0
 12 14  1  0  0  0  0
 14 15  1  0  0  0  0
 14 22  1  0  0  0  0
 15 16  1  1  0  0  0
 15 17  1  0  0  0  0
 17 21  1  0  0  0  0
 17 18  2  0  0  0  0
 18 19  1  0  0  0  0
 18 38  1  0  0  0  0
 19 20  2  0  0  0  0
 19 39  1  0  0  0  0
 20 21  1  0  0  0  0
 20 40  1  0  0  0  0
 22 23  1  0  0  0  0
 22 41  1  0  0  0  0
 22 42  1  0  0  0  0
 23 24  1  0  0  0  0
 23 43  1  0  0  0  0
 23 44  1  0  0  0  0
 24 25  1  0  0  0  0
 24 45  1  0  0  0  0
 24 46  1  0  0  0  0
 25 30  1  0  0  0  0
 25 26  1  0  0  0  0
 26 27  1  0  0  0  0
 26 47  1  0  0  0  0
 26 48  1  0  0  0  0
 27 28  1  0  0  0  0
 27 49  1  0  0  0  0
 27 50  1  0  0  0  0
 28 29  1  0  0  0  0
 29 30  1  0  0  0  0
 29 51  1  0  0  0  0
 29 52  1  0  0  0  0
 30 53  1  0  0  0  0
 30 54  1  0  0  0  0
M  CHG  1  31  -1
M  END
$$$$
ZINC09335078
 OpenBabel01252620473D

 51 53  0  0  0  0  0  0  0  0999 V2000
   -2.2928    0.1460   -2.5386 C   0  0  0  0  0  0  0  0  0  0  0  0
   -1.6305   -0.8628   -1.7733 O   0  0  0  0  0  0  0  0  0  0  0  0
   -0.3050   -1.0510   -2.0153 C   0  0  0  0  0  0  0  0  0  0  0  0
    0.3360   -0.2807   -2.9586 C   0  0  0  0  0  0  0  0  0  0  0  0
    1.7062   -0.4756   -3.2077 C   0  0  0  0  0  0  0  0  0  0  0  0
    2.4128   -1.4608   -2.4872 C   0  0  0  0  0  0  0  0  0  0  0  0
    1.7534   -2.2261   -1.5427 C   0  0  0  0  0  0  0  0  0  0  0  0
    0.4028   -2.0224   -1.3006 C   0  0  0  0  0  0  0  0  0  0  0  0
   -0.2363   -2.7734   -0.3685 O   0  0  0  0  0  0  0  0  0  0  0  0
    0.5445   -3.7481    0.3259 C   0  0  0  0  0  0  0  0  0  0  0  0
    3.7344   -1.6572   -2.7200 O   0  0  0  0  0  0  0  0  0  0  0  0
    4.3844   -2.6724   -1.9526 C   0  0  0  0  0  0  0  0  0  0  0  0
    2.3715    0.3112   -4.1753 C   0  0  0  0  0  0  0  0  0  0  0  0
    2.2339    1.6931   -4.1605 C   0  0  0  0  0  0  0  0  0  0  0  0
    1.5937    2.3892   -3.0353 C   0  0  0  0  0  0  0  0  0  0  0  0
    1.1187    1.6992   -1.9770 O   0  5  0  0  0  0  0  0  0  0  0  0
    1.4942    3.7071   -3.0833 N   0  0  0  0  0  0  0  0  0  0  0  0
    1.9537    4.4132   -4.1133 C   0  0  0  0  0  0  0  0  0  0  0  0
    1.8249    5.6243   -4.0844 O   0  0  0  0  0  0  0  0  0  0  0  0
    2.5512    3.8645   -5.1811 N   0  0  0  0  0  0  0  0  0  0  0  0
    2.7292    2.5290   -5.2707 C   0  0  0  0  0  0  0  0  0  0  0  0
    3.2758    2.0310   -6.2373 O   0  0  0  0  0  0  0  0  0  0  0  0
    3.0237    4.7287   -6.2656 C   0  0  0  0  0  0  0  0  0  0  0  0
    4.4681    5.1506   -5.9891 C   0  0  0  0  0  0  0  0  0  0  0  0
    4.9541    6.0396   -7.1047 C   0  0  0  0  0  0  0  0  0  0  0  0
    5.5664    5.4848   -8.2131 C   0  0  0  0  0  0  0  0  0  0  0  0
    6.0121    6.2990   -9.2370 C   0  0  0  0  0  0  0  0  0  0  0  0
    5.8452    7.6709   -9.1524 C   0  0  0  0  0  0  0  0  0  0  0  0
    5.2318    8.2254   -8.0418 C   0  0  0  0  0  0  0  0  0  0  0  0
    4.7822    7.4088   -7.0216 C   0  0  0  0  0  0  0  0  0  0  0  0
    6.2809    8.4678  -10.1525 F   0  0  0  0  0  0  0  0  0  0  0  0
   -1.8213    1.1111   -2.3531 H   0  0  0  0  0  0  0  0  0  0  0  0
   -2.2202   -0.0960   -3.5989 H   0  0  0  0  0  0  0  0  0  0  0  0
   -3.3423    0.1924   -2.2476 H   0  0  0  0  0  0  0  0  0  0  0  0
   -0.2121    0.4715   -3.5065 H   0  0  0  0  0  0  0  0  0  0  0  0
    2.2920   -2.9815   -0.9898 H   0  0  0  0  0  0  0  0  0  0  0  0
    0.9583   -4.4589   -0.3894 H   0  0  0  0  0  0  0  0  0  0  0  0
    1.3571   -3.2518    0.8565 H   0  0  0  0  0  0  0  0  0  0  0  0
   -0.0863   -4.2771    1.0404 H   0  0  0  0  0  0  0  0  0  0  0  0
    5.4354   -2.7256   -2.2367 H   0  0  0  0  0  0  0  0  0  0  0  0
    4.3063   -2.4323   -0.8922 H   0  0  0  0  0  0  0  0  0  0  0  0
    3.9073   -3.6337   -2.1435 H   0  0  0  0  0  0  0  0  0  0  0  0
    2.9868   -0.1622   -4.9260 H   0  0  0  0  0  0  0  0  0  0  0  0
    2.9782    4.1852   -7.2094 H   0  0  0  0  0  0  0  0  0  0  0  0
    2.3916    5.6147   -6.3258 H   0  0  0  0  0  0  0  0  0  0  0  0
    4.5136    5.6941   -5.0454 H   0  0  0  0  0  0  0  0  0  0  0  0
    5.1002    4.2646   -5.9290 H   0  0  0  0  0  0  0  0  0  0  0  0
    5.6968    4.4147   -8.2787 H   0  0  0  0  0  0  0  0  0  0  0  0
    6.4907    5.8654  -10.1026 H   0  0  0  0  0  0  0  0  0  0  0  0
    5.1014    9.2954   -7.9746 H   0  0  0  0  0  0  0  0  0  0  0  0
    4.2997    7.8407   -6.1572 H   0  0  0  0  0  0  0  0  0  0  0  0
  1  2  1  0  0  0  0
  1 32  1  0  0  0  0
  1 33  1  0  0  0  0
  1 34  1  0  0  0  0
  2  3  1  0  0  0  0
  3  8  2  0  0  0  0
  3  4  1  0  0  0  0
  4  5  2  0  0  0  0
  4 35  1  0  0  0  0
  5  6  1  0  0  0  0
  5 13  1  0  0  0  0
  6  7  2  0  0  0  0
  6 11  1  0  0  0  0
  7  8  1  0  0  0  0
  7 36  1  0  0  0  0
  8  9  1  0  0  0  0
  9 10  1  0  0  0  0
 10 37  1  0  0  0  0
 10 38  1  0  0  0  0
 10 39  1  0  0  0  0
 11 12  1  0  0  0  0
 12 40  1  0  0  0  0
 12 41  1  0  0  0  0
 12 42  1  0  0  0  0
 13 14  2  0  0  0  0
 13 43  1  0  0  0  0
 14 21  1  0  0  0  0
 14 15  1  0  0  0  0
 15 16  1  0  0  0  0
 15 17  2  0  0  0  0
 17 18  1  0  0  0  0
 18 19  2  0  0  0  0
 18 20  1  0  0  0  0
 20 21  1  0  0  0  0
 20 23  1  0  0  0  0
 21 22  2  0  0  0  0
 23 24  1  0  0  0  0
 23 44  1  0  0  0  0
 23 45  1  0  0  0  0
 24 25  1  0  0  0  0
 24 46  1  0  0  0  0
 24 47  1  0  0  0  0
 25 30  2  0  0  0  0
 25 26  1  0  0  0  0
 26 27  2  0  0  0  0
 26 48  1  0  0  0  0
 27 28  1  0  0  0  0
 27 49  1  0  0  0  0
 28 29  2  0  0  0  0
 28 31  1  0  0  0  0
 29 30  1  0  0  0  0
 29 50  1  0  0  0  0
 30 51  1  0  0  0  0
M  CHG  1  16  -1
M  END
$$$$
ZINC19877666
 OpenBabel01252620473D

 41 42  0  0  1  0  0  0  0  0999 V2000
    4.4670    0.0862    3.2419 C   0  0  0  0  0  0  0  0  0  0  0  0
    3.5933    1.1722    2.8351 O   0  0  0  0  0  0  0  0  0  0  0  0
    2.8805    0.9927    1.7120 C   0  0  0  0  0  0  0  0  0  0  0  0
    2.9833   -0.0377    1.0894 O   0  0  0  0  0  0  0  0  0  0  0  0
    1.9520    2.0764    1.2275 C   0  0  2  0  0  0  0  0  0  0  0  0
    1.2860    2.2510    2.0854 H   0  0  0  0  0  0  0  0  0  0  0  0
    1.2458    1.6547   -0.0665 C   0  0  1  0  0  0  0  0  0  0  0  0
    1.8310    0.8642   -0.5590 H   0  0  0  0  0  0  0  0  0  0  0  0
   -0.1844    1.1508    0.1394 C   0  0  2  0  0  0  0  0  0  0  0  0
   -0.2765    0.0562    0.1977 H   0  0  0  0  0  0  0  0  0  0  0  0
   -0.9127    1.7735   -1.0455 C   0  0  0  0  0  0  0  0  0  0  0  0
   -1.9296    1.3615   -1.5651 O   0  0  0  0  0  0  0  0  0  0  0  0
   -0.1785    2.9244   -1.4267 C   0  0  0  0  0  0  0  0  0  0  0  0
    1.0469    2.9836   -0.7897 C   0  0  0  0  0  0  0  0  0  0  0  0
    2.1414    3.7862   -0.4142 C   0  0  0  0  0  0  0  0  0  0  0  0
    2.7257    3.3207    0.7539 C   0  0  0  0  0  0  0  0  0  0  0  0
    3.7946    3.8515    1.3637 O   0  5  0  0  0  0  0  0  0  0  0  0
    2.6045    4.9654   -1.1637 C   0  0  0  0  0  0  0  0  0  0  0  0
    3.2619    4.8224   -2.1759 O   0  0  0  0  0  0  0  0  0  0  0  0
    2.2994    6.2036   -0.7276 O   0  0  0  0  0  0  0  0  0  0  0  0
    2.7893    7.3197   -1.5167 C   0  0  0  0  0  0  0  0  0  0  0  0
   -0.6605    3.9306   -2.3814 C   0  0  0  0  0  0  0  0  0  0  0  0
    0.0607    4.8534   -2.7079 O   0  0  0  0  0  0  0  0  0  0  0  0
   -1.9028    3.8312   -2.8959 O   0  0  0  0  0  0  0  0  0  0  0  0
   -2.3123    4.8614   -3.8336 C   0  0  0  0  0  0  0  0  0  0  0  0
   -0.7493    1.6521    1.4435 C   0  0  0  0  0  0  0  0  0  0  0  0
   -1.2721    2.7401    1.4969 O   0  0  0  0  0  0  0  0  0  0  0  0
   -0.6717    0.8900    2.5457 O   0  0  0  0  0  0  0  0  0  0  0  0
   -1.2367    1.4368    3.7664 C   0  0  0  0  0  0  0  0  0  0  0  0
    4.9878    0.3628    4.1705 H   0  0  0  0  0  0  0  0  0  0  0  0
    5.2061   -0.1059    2.4502 H   0  0  0  0  0  0  0  0  0  0  0  0
    3.8689   -0.8210    3.4132 H   0  0  0  0  0  0  0  0  0  0  0  0
    2.4712    8.2647   -1.0522 H   0  0  0  0  0  0  0  0  0  0  0  0
    2.3799    7.2560   -2.5357 H   0  0  0  0  0  0  0  0  0  0  0  0
    3.8879    7.2839   -1.5600 H   0  0  0  0  0  0  0  0  0  0  0  0
   -3.3391    4.6608   -4.1733 H   0  0  0  0  0  0  0  0  0  0  0  0
   -1.6331    4.8606   -4.6989 H   0  0  0  0  0  0  0  0  0  0  0  0
   -2.2749    5.8432   -3.3390 H   0  0  0  0  0  0  0  0  0  0  0  0
   -1.1064    0.7150    4.5862 H   0  0  0  0  0  0  0  0  0  0  0  0
   -2.3087    1.6337    3.6181 H   0  0  0  0  0  0  0  0  0  0  0  0
   -0.7230    2.3759    4.0196 H   0  0  0  0  0  0  0  0  0  0  0  0
  1  2  1  0  0  0  0
  1 30  1  0  0  0  0
  1 31  1  0  0  0  0
  1 32  1  0  0  0  0
  2  3  1  0  0  0  0
  3  4  2  0  0  0  0
  3  5  1  0  0  0  0
  5  6  1  1  0  0  0
  5 16  1  0  0  0  0
  5  7  1  0  0  0  0
  7  8  1  6  0  0  0
  7 14  1  0  0  0  0
  7  9  1  0  0  0  0
  9 10  1  6  0  0  0
  9 11  1  0  0  0  0
  9 26  1  0  0  0  0
 11 12  2  0  0  0  0
 11 13  1  0  0  0  0
 13 14  2  0  0  0  0
 13 22  1  0  0  0  0
 14 15  1  0  0  0  0
 15 16  2  0  0  0  0
 15 18  1  0  0  0  0
 16 17  1  0  0  0  0
 18 19  2  0  0  0  0
 18 20  1  0  0  0  0
 20 21  1  0  0  0  0
 21 33  1  0  0  0  0
 21 34  1  0  0  0  0
 21 35  1  0  0  0  0
 22 23  2  0  0  0  0
 22 24  1  0  0  0  0
 24 25  1  0  0  0  0
 25 36  1  0  0  0  0
 25 37  1  0  0  0  0
 25 38  1  0  0  0  0
 26 27  2  0  0  0  0
 26 28  1  0  0  0  0
 28 29  1  0  0  0  0
 29 39  1  0  0  0  0
 29 40  1  0  0  0  0
 29 41  1  0  0  0  0
M  CHG  1  17  -1
M  END
$$$$
ZINC54524544
 OpenBabel01252620473D

 29 30  0  0  1  0  0  0  0  0999 V2000
   -0.0184    1.5028    0.0103 C   0  0  0  0  0  0  0  0  0  0  0  0
    0.0021   -0.0041    0.0020 C   0  0  0  0  0  0  0  0  0  0  0  0
    0.0059   -0.7056   -1.1577 C   0  0  0  0  0  0  0  0  0  0  0  0
    0.0324   -2.3785   -0.5347 S   0  0  0  0  0  0  0  0  0  0  0  0
    0.0358   -2.0149    1.1085 C   0  0  0  0  0  0  0  0  0  0  0  0
    0.0227   -0.6996    1.1243 N   0  0  0  0  0  0  0  0  0  0  0  0
    0.0536   -2.8916    2.1871 N   0  0  0  0  0  0  0  0  0  0  0  0
    0.0715   -4.2222    1.9738 C   0  0  0  0  0  0  0  0  0  0  0  0
    0.0722   -4.6559    0.8380 O   0  0  0  0  0  0  0  0  0  0  0  0
    0.0888   -5.0722    3.0197 N   0  0  0  0  0  0  0  0  0  0  0  0
    0.1083   -6.5186    2.7878 C   0  0  2  0  0  0  0  0  0  0  0  0
   -0.4822   -6.7526    1.9020 H   0  0  0  0  0  0  0  0  0  0  0  0
   -0.4852   -7.2376    4.0009 C   0  0  0  0  0  0  0  0  0  0  0  0
    0.4647   -8.0736    4.8611 C   0  0  0  0  0  0  0  0  0  0  0  0
   -0.5539   -8.7653    3.9528 C   0  0  0  0  0  0  0  0  0  0  0  0
    1.5294   -6.9747    2.5791 C   0  0  0  0  0  0  0  0  0  0  0  0
    2.4535   -6.2103    2.7986 O   0  0  0  0  0  0  0  0  0  0  0  0
    1.7550   -8.1082    2.1908 O   0  0  0  0  0  1  0  0  0  0  0  0
    1.0042    1.8801    0.0026 H   0  0  0  0  0  0  0  0  0  0  0  0
   -0.5455    1.8639   -0.8728 H   0  0  0  0  0  0  0  0  0  0  0  0
   -0.5286    1.8543    0.9071 H   0  0  0  0  0  0  0  0  0  0  0  0
   -0.0046   -0.3504   -2.1776 H   0  0  0  0  0  0  0  0  0  0  0  0
    0.0530   -2.5456    3.0934 H   0  0  0  0  0  0  0  0  0  0  0  0
    0.0883   -4.7262    3.9259 H   0  0  0  0  0  0  0  0  0  0  0  0
   -1.2946   -6.7132    4.5087 H   0  0  0  0  0  0  0  0  0  0  0  0
    1.5123   -8.1113    4.5627 H   0  0  0  0  0  0  0  0  0  0  0  0
    0.2803   -8.0992    5.9351 H   0  0  0  0  0  0  0  0  0  0  0  0
   -1.4083   -9.2460    4.4292 H   0  0  0  0  0  0  0  0  0  0  0  0
   -0.1763   -9.2581    3.0569 H   0  0  0  0  0  0  0  0  0  0  0  0
  1  2  1  0  0  0  0
  1 19  1  0  0  0  0
  1 20  1  0  0  0  0
  1 21  1  0  0  0  0
  2  6  1  0  0  0  0
  2  3  2  0  0  0  0
  3  4  1  0  0  0  0
  3 22  1  0  0  0  0
  4  5  1  0  0  0  0
  5  6  2  0  0  0  0
  5  7  1  0  0  0  0
  7  8  1  0  0  0  0
  7 23  1  0  0  0  0
  8  9  2  0  0  0  0
  8 10  1  0  0  0  0
 10 11  1  0  0  0  0
 10 24  1  0  0  0  0
 11 12  1  6  0  0  0
 11 13  1  0  0  0  0
 11 16  1  0  0  0  0
 13 15  1  0  0  0  0
 13 14  1  0  0  0  0
 13 25  1  0  0  0  0
 14 15  1  0  0  0  0
 14 26  1  0  0  0  0
 14 27  1  0  0  0  0
 15 28  1  0  0  0  0
 15 29  1  0  0  0  0
 16 17  2  0  0  0  0
 16 18  1  0  0  0  0
M  END
$$$$
ZINC46053618
 OpenBabel01252620473D

 58 60  0  0  0  0  0  0  0  0999 V2000
   -0.3247    2.2807    0.0995 C   0  0  0  0  0  0  0  0  0  0  0  0
   -0.2128    0.7691   -0.1087 C   0  0  0  0  0  0  0  0  0  0  0  0
   -1.5521    0.1756   -0.1085 N   0  0  0  0  0  0  0  0  0  0  0  0
   -2.2161   -0.2852    0.9722 C   0  0  0  0  0  0  0  0  0  0  0  0
   -3.4148   -0.7515    0.5519 C   0  0  0  0  0  0  0  0  0  0  0  0
   -3.4858   -0.5696   -0.8331 C   0  0  0  0  0  0  0  0  0  0  0  0
   -2.3723   -0.0083   -1.2291 N   0  0  0  0  0  0  0  0  0  0  0  0
   -4.6472   -0.9481   -1.7156 C   0  0  0  0  0  0  0  0  0  0  0  0
   -4.4840   -1.3602    1.4222 C   0  0  0  0  0  0  0  0  0  0  0  0
   -5.4247   -0.2605    1.9188 C   0  0  0  0  0  0  0  0  0  0  0  0
   -6.4641   -0.8523    2.7648 N   0  0  0  0  0  0  0  0  0  0  0  0
   -6.2489   -0.9802    4.2082 C   0  0  0  0  0  0  0  0  0  0  0  0
   -7.6537   -1.2920    2.1983 C   0  0  0  0  0  0  0  0  0  0  0  0
   -7.7704   -2.6024    1.7508 C   0  0  0  0  0  0  0  0  0  0  0  0
   -8.9506   -3.0397    1.1884 C   0  0  0  0  0  0  0  0  0  0  0  0
  -10.0346   -2.1748    1.0637 C   0  0  0  0  0  0  0  0  0  0  0  0
   -9.9364   -0.8676    1.5036 C   0  0  0  0  0  0  0  0  0  0  0  0
   -8.7450   -0.4152    2.0811 C   0  0  0  0  0  0  0  0  0  0  0  0
   -8.6340    0.9715    2.5576 C   0  0  0  0  0  0  0  0  0  0  0  0
   -9.5868    1.7322    2.4537 O   0  0  0  0  0  0  0  0  0  0  0  0
   -7.5889    1.3647    3.0579 O   0  0  0  0  0  1  0  0  0  0  0  0
  -11.2288   -2.6304    0.4901 N   0  0  0  0  0  0  0  0  0  0  0  0
  -11.9899   -1.7901   -0.2386 C   0  0  0  0  0  0  0  0  0  0  0  0
  -11.5948   -0.6657   -0.4790 O   0  0  0  0  0  0  0  0  0  0  0  0
  -13.3047   -2.2353   -0.7454 C   0  0  0  0  0  0  0  0  0  0  0  0
  -13.7637   -3.5240   -0.4661 C   0  0  0  0  0  0  0  0  0  0  0  0
  -14.9918   -3.9335   -0.9414 C   0  0  0  0  0  0  0  0  0  0  0  0
  -15.7690   -3.0697   -1.6947 C   0  0  0  0  0  0  0  0  0  0  0  0
  -15.3190   -1.7905   -1.9755 C   0  0  0  0  0  0  0  0  0  0  0  0
  -14.0955   -1.3671   -1.5005 C   0  0  0  0  0  0  0  0  0  0  0  0
  -17.4515   -3.6395   -2.3431 Br  0  0  0  0  0  0  0  0  0  0  0  0
   -1.7126   -0.2814    2.3926 C   0  0  0  0  0  0  0  0  0  0  0  0
    0.6718    2.7223    0.0994 H   0  0  0  0  0  0  0  0  0  0  0  0
   -0.9151    2.7158   -0.7068 H   0  0  0  0  0  0  0  0  0  0  0  0
   -0.8107    2.4809    1.0545 H   0  0  0  0  0  0  0  0  0  0  0  0
    0.2732    0.5689   -1.0636 H   0  0  0  0  0  0  0  0  0  0  0  0
    0.3776    0.3340    0.6977 H   0  0  0  0  0  0  0  0  0  0  0  0
   -5.3394   -0.1090   -1.7850 H   0  0  0  0  0  0  0  0  0  0  0  0
   -4.2804   -1.1998   -2.7107 H   0  0  0  0  0  0  0  0  0  0  0  0
   -5.1618   -1.8093   -1.2895 H   0  0  0  0  0  0  0  0  0  0  0  0
   -5.0512   -2.0899    0.8442 H   0  0  0  0  0  0  0  0  0  0  0  0
   -4.0201   -1.8543    2.2758 H   0  0  0  0  0  0  0  0  0  0  0  0
   -4.8576    0.4691    2.4968 H   0  0  0  0  0  0  0  0  0  0  0  0
   -5.8887    0.2336    1.0651 H   0  0  0  0  0  0  0  0  0  0  0  0
   -6.6079   -0.0818    4.7102 H   0  0  0  0  0  0  0  0  0  0  0  0
   -6.7939   -1.8473    4.5814 H   0  0  0  0  0  0  0  0  0  0  0  0
   -5.1847   -1.1069    4.4070 H   0  0  0  0  0  0  0  0  0  0  0  0
   -6.9343   -3.2798    1.8434 H   0  0  0  0  0  0  0  0  0  0  0  0
   -9.0349   -4.0593    0.8421 H   0  0  0  0  0  0  0  0  0  0  0  0
  -10.7785   -0.1987    1.4054 H   0  0  0  0  0  0  0  0  0  0  0  0
  -11.5079   -3.5506    0.6174 H   0  0  0  0  0  0  0  0  0  0  0  0
  -13.1582   -4.1988    0.1207 H   0  0  0  0  0  0  0  0  0  0  0  0
  -15.3480   -4.9300   -0.7261 H   0  0  0  0  0  0  0  0  0  0  0  0
  -15.9294   -1.1216   -2.5641 H   0  0  0  0  0  0  0  0  0  0  0  0
  -13.7477   -0.3676   -1.7161 H   0  0  0  0  0  0  0  0  0  0  0  0
   -2.0036    0.6497    2.8788 H   0  0  0  0  0  0  0  0  0  0  0  0
   -2.1441   -1.1238    2.9333 H   0  0  0  0  0  0  0  0  0  0  0  0
   -0.6260   -0.3675    2.3932 H   0  0  0  0  0  0  0  0  0  0  0  0
  1  2  1  0  0  0  0
  1 33  1  0  0  0  0
  1 34  1  0  0  0  0
  1 35  1  0  0  0  0
  2  3  1  0  0  0  0
  2 36  1  0  0  0  0
  2 37  1  0  0  0  0
  3  7  1  0  0  0  0
  3  4  1  0  0  0  0
  4  5  2  0  0  0  0
  4 32  1  0  0  0  0
  5  6  1  0  0  0  0
  5  9  1  0  0  0  0
  6  7  2  0  0  0  0
  6  8  1  0  0  0  0
  8 38  1  0  0  0  0
  8 39  1  0  0  0  0
  8 40  1  0  0  0  0
  9 10  1  0  0  0  0
  9 41  1  0  0  0  0
  9 42  1  0  0  0  0
 10 11  1  0  0  0  0
 10 43  1  0  0  0  0
 10 44  1  0  0  0  0
 11 12  1  0  0  0  0
 11 13  1  0  0  0  0
 12 45  1  0  0  0  0
 12 46  1  0  0  0  0
 12 47  1  0  0  0  0
 13 18  2  0  0  0  0
 13 14  1  0  0  0  0
 14 15  2  0  0  0  0
 14 48  1  0  0  0  0
 15 16  1  0  0  0  0
 15 49  1  0  0  0  0
 16 17  2  0  0  0  0
 16 22  1  0  0  0  0
 17 18  1  0  0  0  0
 17 50  1  0  0  0  0
 18 19  1  0  0  0  0
 19 20  2  0  0  0  0
 19 21  1  0  0  0  0
 22 23  1  0  0  0  0
 22 51  1  0  0  0  0
 23 24  2  0  0  0  0
 23 25  1  0  0  0  0
 25 30  2  0  0  0  0
 25 26  1  0  0  0  0
 26 27  2  0  0  0  0
 26 52  1  0  0  0  0
 27 28  1  0  0  0  0
 27 53  1  0  0  0  0
 28 29  2  0  0  0  0
 28 31  1  0  0  0  0
 29 30  1  0  0  0  0
 29 54  1  0  0  0  0
 30 55  1  0  0  0  0
 32 56  1  0  0  0  0
 32 57  1  0  0  0  0
 32 58  1  0  0  0  0
M  END
$$$$
ZINC67286827
 OpenBabel01252620473D

 52 54  0  0  0  0  0  0  0  0999 V2000
   -0.0165    1.3842    0.0261 C   0  0  0  0  0  0  0  0  0  0  0  0
    1.1698    2.0909    0.0185 C   0  0  0  0  0  0  0  0  0  0  0  0
    2.3814    1.4132   -0.0130 C   0  0  0  0  0  0  0  0  0  0  0  0
    2.4000    0.0249   -0.0370 C   0  0  0  0  0  0  0  0  0  0  0  0
    1.2137   -0.6817   -0.0295 C   0  0  0  0  0  0  0  0  0  0  0  0
    0.0021   -0.0041    0.0020 C   0  0  0  0  0  0  0  0  0  0  0  0
   -1.2007   -0.7205    0.0101 N   0  0  0  0  0  2  0  0  0  0  0  0
   -1.1785   -2.3761   -0.0186 S   0  0  0  0  0  0  0  0  0  0  0  0
   -0.5918   -2.7092   -1.2692 O   0  0  0  0  0  0  0  0  0  0  0  0
   -0.5501   -2.7514    1.1994 O   0  0  0  0  0  0  0  0  0  0  0  0
   -2.9249   -2.8662    0.0025 C   0  0  0  0  0  0  0  0  0  0  0  0
   -3.0251   -4.3696   -0.0215 C   0  0  0  0  0  0  0  0  0  0  0  0
   -2.0176   -5.0441   -0.0501 O   0  0  0  0  0  0  0  0  0  0  0  0
   -4.2344   -4.9647   -0.0113 N   0  0  0  0  0  0  0  0  0  0  0  0
   -4.3317   -6.4263   -0.0346 C   0  0  0  0  0  0  0  0  0  0  0  0
   -5.7826   -6.8334   -0.0171 C   0  0  0  0  0  0  0  0  0  0  0  0
   -6.6499   -5.9861    0.0120 O   0  0  0  0  0  0  0  0  0  0  0  0
   -6.1164   -8.1391   -0.0338 N   0  0  0  0  0  0  0  0  0  0  0  0
   -7.5268   -8.5348   -0.0167 C   0  0  0  0  0  0  0  0  0  0  0  0
   -7.9260   -9.6875    0.9068 C   0  0  0  0  0  0  0  0  0  0  0  0
   -7.8847   -9.9000   -0.6078 C   0  0  0  0  0  0  0  0  0  0  0  0
    3.5842    2.1296   -0.0211 N   0  0  0  0  0  0  0  0  0  0  0  0
    4.8730    1.4297    0.0669 C   0  0  0  0  0  0  0  0  0  0  0  0
    5.7557    1.8726   -1.1042 C   0  0  0  0  0  0  0  0  0  0  0  0
    5.8680    3.3989   -1.1044 C   0  0  0  0  0  0  0  0  0  0  0  0
    4.4788    4.0143   -1.2869 C   0  0  0  0  0  0  0  0  0  0  0  0
    3.5818    3.5953   -0.1240 C   0  0  0  0  0  0  0  0  0  0  0  0
   -0.9588    1.9112    0.0552 H   0  0  0  0  0  0  0  0  0  0  0  0
    1.1554    3.1706    0.0368 H   0  0  0  0  0  0  0  0  0  0  0  0
    3.3424   -0.5021   -0.0620 H   0  0  0  0  0  0  0  0  0  0  0  0
    1.2281   -1.7615   -0.0482 H   0  0  0  0  0  0  0  0  0  0  0  0
   -3.3984   -2.4849    0.9072 H   0  0  0  0  0  0  0  0  0  0  0  0
   -3.4284   -2.4545   -0.8722 H   0  0  0  0  0  0  0  0  0  0  0  0
   -5.0402   -4.4252    0.0115 H   0  0  0  0  0  0  0  0  0  0  0  0
   -3.8583   -6.8075   -0.9394 H   0  0  0  0  0  0  0  0  0  0  0  0
   -3.8282   -6.8380    0.8401 H   0  0  0  0  0  0  0  0  0  0  0  0
   -5.4227   -8.8167   -0.0571 H   0  0  0  0  0  0  0  0  0  0  0  0
   -8.2440   -7.7249   -0.1503 H   0  0  0  0  0  0  0  0  0  0  0  0
   -7.1392  -10.1513    1.5018 H   0  0  0  0  0  0  0  0  0  0  0  0
   -8.9060   -9.6360    1.3813 H   0  0  0  0  0  0  0  0  0  0  0  0
   -8.8374   -9.9883   -1.1298 H   0  0  0  0  0  0  0  0  0  0  0  0
   -7.0707  -10.5036   -1.0093 H   0  0  0  0  0  0  0  0  0  0  0  0
    5.3617    1.6810    1.0083 H   0  0  0  0  0  0  0  0  0  0  0  0
    4.7087    0.3535    0.0141 H   0  0  0  0  0  0  0  0  0  0  0  0
    6.7482    1.4348   -0.9976 H   0  0  0  0  0  0  0  0  0  0  0  0
    5.3098    1.5405   -2.0417 H   0  0  0  0  0  0  0  0  0  0  0  0
    6.2911    3.7320   -0.1567 H   0  0  0  0  0  0  0  0  0  0  0  0
    6.5156    3.7152   -1.9222 H   0  0  0  0  0  0  0  0  0  0  0  0
    4.5624    5.1008   -1.3104 H   0  0  0  0  0  0  0  0  0  0  0  0
    4.0449    3.6620   -2.2227 H   0  0  0  0  0  0  0  0  0  0  0  0
    2.5659    3.9474   -0.3028 H   0  0  0  0  0  0  0  0  0  0  0  0
    3.9629    4.0271    0.8014 H   0  0  0  0  0  0  0  0  0  0  0  0
  1  6  2  0  0  0  0
  1  2  1  0  0  0  0
  1 28  1  0  0  0  0
  2  3  2  0  0  0  0
  2 29  1  0  0  0  0
  3  4  1  0  0  0  0
  3 22  1  0  0  0  0
  4  5  2  0  0  0  0
  4 30  1  0  0  0  0
  5  6  1  0  0  0  0
  5 31  1  0  0  0  0
  6  7  1  0  0  0  0
  7  8  1  0  0  0  0
  8  9  2  0  0  0  0
  8 10  2  0  0  0  0
  8 11  1  0  0  0  0
 11 12  1  0  0  0  0
 11 32  1  0  0  0  0
 11 33  1  0  0  0  0
 12 13  2  0  0  0  0
 12 14  1  0  0  0  0
 14 15  1  0  0  0  0
 14 34  1  0  0  0  0
 15 16  1  0  0  0  0
 15 35  1  0  0  0  0
 15 36  1  0  0  0  0
 16 17  2  0  0  0  0
 16 18  1  0  0  0  0
 18 19  1  0  0  0  0
 18 37  1  0  0  0  0
 19 21  1  0  0  0  0
 19 20  1  0  0  0  0
 19 38  1  0  0  0  0
 20 21  1  0  0  0  0
 20 39  1  0  0  0  0
 20 40  1  0  0  0  0
 21 41  1  0  0  0  0
 21 42  1  0  0  0  0
 22 27  1  0  0  0  0
 22 23  1  0  0  0  0
 23 24  1  0  0  0  0
 23 43  1  0  0  0  0
 23 44  1  0  0  0  0
 24 25  1  0  0  0  0
 24 45  1  0  0  0  0
 24 46  1  0  0  0  0
 25 26  1  0  0  0  0
 25 47  1  0  0  0  0
 25 48  1  0  0  0  0
 26 27  1  0  0  0  0
 26 49  1  0  0  0  0
 26 50  1  0  0  0  0
 27 51  1  0  0  0  0
 27 52  1  0  0  0  0
M  END
$$$$
ZINC03622191
 OpenBabel01252620473D

 43 45  0  0  0  0  0  0  0  0999 V2000
    1.8889    7.3281   -1.5577 C   0  0  0  0  0  0  0  0  0  0  0  0
    1.1369    8.2710   -0.8816 C   0  0  0  0  0  0  0  0  0  0  0  0
    0.2121    7.8719    0.0654 C   0  0  0  0  0  0  0  0  0  0  0  0
    0.0375    6.5271    0.3388 C   0  0  0  0  0  0  0  0  0  0  0  0
    0.7923    5.5788   -0.3397 C   0  0  0  0  0  0  0  0  0  0  0  0
    1.7222    5.9838   -1.2853 C   0  0  0  0  0  0  0  0  0  0  0  0
    0.6237    4.2563   -0.0732 O   0  0  0  0  0  0  0  0  0  0  0  0
   -0.4314    3.5803   -0.9370 S   0  0  0  0  0  0  0  0  0  0  0  0
   -0.6270    2.2807   -0.3966 O   0  0  0  0  0  0  0  0  0  0  0  0
   -1.4940    4.5122   -1.0838 O   0  0  0  0  0  0  0  0  0  0  0  0
    0.2275    3.3728   -2.4420 N   0  0  0  0  0  0  0  0  0  0  0  0
    1.2826    2.5508   -2.6083 C   0  0  0  0  0  0  0  0  0  0  0  0
    1.8096    2.0349   -1.6416 O   0  5  0  0  0  0  0  0  0  0  0  0
    1.7534    2.3006   -3.8461 N   0  0  0  0  0  0  0  0  0  0  0  0
    2.8363    1.3284   -4.0596 C   0  0  0  0  0  0  0  0  0  0  0  0
    2.3916    0.3440   -5.1529 C   0  0  0  0  0  0  0  0  0  0  0  0
    1.9890    1.0969   -6.3482 N   0  0  0  0  0  0  0  0  0  0  0  0
    0.8259    1.9511   -6.0733 C   0  0  0  0  0  0  0  0  0  0  0  0
    1.2022    2.9969   -5.0185 C   0  0  0  0  0  0  0  0  0  0  0  0
    1.7372    0.2391   -7.4177 C   0  0  0  0  0  3  0  0  0  0  0  0
    2.4805    0.3594   -8.5874 C   0  0  0  0  0  0  0  0  0  0  0  0
    2.2234   -0.5022   -9.6404 C   0  0  0  0  0  0  0  0  0  0  0  0
    1.2205   -1.4516   -9.4902 C   0  0  0  0  0  0  0  0  0  0  0  0
    0.5180   -1.5112   -8.3018 C   0  0  0  0  0  0  0  0  0  0  0  0
    0.7889   -0.6793   -7.3128 N   0  0  0  0  0  0  0  0  0  0  0  0
    0.0468   -0.7712   -6.1104 O   0  5  0  0  0  0  0  0  0  0  0  0
    0.8538   -2.5521  -10.7818 Cl  0  0  0  0  0  0  0  0  0  0  0  0
    3.7177    1.5697   -8.7229 Cl  0  0  0  0  0  0  0  0  0  0  0  0
   -0.8655    6.1368    1.2648 F   0  0  0  0  0  0  0  0  0  0  0  0
    2.6106    7.6431   -2.2970 H   0  0  0  0  0  0  0  0  0  0  0  0
    1.2725    9.3213   -1.0934 H   0  0  0  0  0  0  0  0  0  0  0  0
   -0.3741    8.6103    0.5921 H   0  0  0  0  0  0  0  0  0  0  0  0
    2.3132    5.2486   -1.8112 H   0  0  0  0  0  0  0  0  0  0  0  0
    3.7471    1.8577   -4.3761 H   0  0  0  0  0  0  0  0  0  0  0  0
    3.0336    0.7875   -3.1223 H   0  0  0  0  0  0  0  0  0  0  0  0
    3.2264   -0.3270   -5.4037 H   0  0  0  0  0  0  0  0  0  0  0  0
    1.5409   -0.2500   -4.7875 H   0  0  0  0  0  0  0  0  0  0  0  0
    0.5160    2.4576   -6.9993 H   0  0  0  0  0  0  0  0  0  0  0  0
   -0.0030    1.3325   -5.6987 H   0  0  0  0  0  0  0  0  0  0  0  0
    0.3100    3.5670   -4.7204 H   0  0  0  0  0  0  0  0  0  0  0  0
    1.9580    3.6849   -5.4252 H   0  0  0  0  0  0  0  0  0  0  0  0
    2.7870   -0.4350  -10.5593 H   0  0  0  0  0  0  0  0  0  0  0  0
   -0.2628   -2.2473   -8.1804 H   0  0  0  0  0  0  0  0  0  0  0  0
  1  6  2  0  0  0  0
  1  2  1  0  0  0  0
  1 30  1  0  0  0  0
  2  3  2  0  0  0  0
  2 31  1  0  0  0  0
  3  4  1  0  0  0  0
  3 32  1  0  0  0  0
  4  5  2  0  0  0  0
  4 29  1  0  0  0  0
  5  6  1  0  0  0  0
  5  7  1  0  0  0  0
  6 33  1  0  0  0  0
  7  8  1  0  0  0  0
  8  9  2  0  0  0  0
  8 10  2  0  0  0  0
  8 11  1  0  0  0  0
 11 12  2  0  0  0  0
 12 13  1  0  0  0  0
 12 14  1  0  0  0  0
 14 19  1  0  0  0  0
 14 15  1  0  0  0  0
 15 16  1  0  0  0  0
 15 34  1  0  0  0  0
 15 35  1  0  0  0  0
 16 17  1  0  0  0  0
 16 36  1  0  0  0  0
 16 37  1  0  0  0  0
 17 18  1  0  0  0  0
 17 20  1  0  0  0  0
 18 19  1  0  0  0  0
 18 38  1  0  0  0  0
 18 39  1  0  0  0  0
 19 40  1  0  0  0  0
 19 41  1  0  0  0  0
 20 25  1  0  0  0  0
 20 21  1  0  0  0  0
 21 22  2  0  0  0  0
 21 28  1  0  0  0  0
 22 23  1  0  0  0  0
 22 42  1  0  0  0  0
 23 24  2  0  0  0  0
 23 27  1  0  0  0  0
 24 25  1  0  0  0  0
 24 43  1  0  0  0  0
 25 26  1  0  0  0  0
M  CHG  2  13  -1  26  -1
M  END
$$$$
ZINC65137578
 OpenBabel01252620473D

 56 59  0  0  0  0  0  0  0  0999 V2000
   -1.4724    1.0213   -0.1367 C   0  0  0  0  0  0  0  0  0  0  0  0
   -0.6063   -0.2096   -0.0609 C   0  0  0  0  0  0  0  0  0  0  0  0
    0.0212   -0.6988   -1.2002 C   0  0  0  0  0  0  0  0  0  0  0  0
    0.8758   -2.1159   -0.5214 S   0  0  0  0  0  0  0  0  0  0  0  0
    0.3241   -1.9172    1.1675 C   0  0  0  0  0  0  0  0  0  0  0  0
   -0.4327   -0.8246    1.0747 N   0  0  0  0  0  0  0  0  0  0  0  0
    0.6291   -2.7385    2.3470 C   0  0  0  0  0  0  0  0  0  0  0  0
    1.4281   -3.8476    2.3720 C   0  0  0  0  0  0  0  0  0  0  0  0
    1.4455   -4.3187    3.6913 C   0  0  0  0  0  0  0  0  0  0  0  0
    0.6671   -3.4978    4.4332 C   0  0  0  0  0  0  0  0  0  0  0  0
    0.1671   -2.5257    3.6238 N   0  0  0  0  0  0  0  0  0  0  0  0
   -0.7185   -1.4362    4.0422 C   0  0  0  0  0  0  0  0  0  0  0  0
    2.3241   -5.7283    4.2792 S   0  0  0  0  0  0  0  0  0  0  0  0
    1.6555   -6.1621    5.4557 O   0  0  0  0  0  0  0  0  0  0  0  0
    2.5234   -6.5791    3.1587 O   0  0  0  0  0  0  0  0  0  0  0  0
    3.8238   -5.2086    4.7515 N   0  0  0  0  0  2  0  0  0  0  0  0
    4.7489   -6.1202    5.2666 C   0  0  0  0  0  0  0  0  0  0  0  0
    4.4121   -7.4649    5.3771 C   0  0  0  0  0  0  0  0  0  0  0  0
    5.3229   -8.3720    5.8859 C   0  0  0  0  0  0  0  0  0  0  0  0
    6.5733   -7.9503    6.2881 C   0  0  0  0  0  0  0  0  0  0  0  0
    6.9234   -6.6006    6.1811 C   0  0  0  0  0  0  0  0  0  0  0  0
    6.0038   -5.6851    5.6617 C   0  0  0  0  0  0  0  0  0  0  0  0
    8.2565   -6.1468    6.6092 C   0  0  0  0  0  0  0  0  0  0  0  0
    8.5575   -4.9759    6.5154 O   0  0  0  0  0  0  0  0  0  0  0  0
    9.2475   -7.1374    7.1640 C   0  0  0  0  0  0  0  0  0  0  0  0
   -0.0092   -0.1947   -2.5743 C   0  0  0  0  0  0  0  0  0  0  0  0
   -0.1323    0.9984   -2.7823 O   0  0  0  0  0  0  0  0  0  0  0  0
    0.0992   -1.0515   -3.6090 N   0  0  0  0  0  0  0  0  0  0  0  0
    0.1173   -2.5063   -3.3890 C   0  0  0  0  0  0  0  0  0  0  0  0
   -0.9161   -3.1492   -4.3212 C   0  0  0  0  0  0  0  0  0  0  0  0
   -0.6818   -2.7066   -5.6602 O   0  0  0  0  0  0  0  0  0  0  0  0
   -0.8352   -1.2974   -5.8461 C   0  0  0  0  0  0  0  0  0  0  0  0
    0.1966   -0.5599   -4.9925 C   0  0  0  0  0  0  0  0  0  0  0  0
   -0.8615    1.9067    0.0390 H   0  0  0  0  0  0  0  0  0  0  0  0
   -1.9283    1.0845   -1.1248 H   0  0  0  0  0  0  0  0  0  0  0  0
   -2.2539    0.9629    0.6209 H   0  0  0  0  0  0  0  0  0  0  0  0
    1.9488   -4.2806    1.5307 H   0  0  0  0  0  0  0  0  0  0  0  0
    0.4776   -3.5956    5.4920 H   0  0  0  0  0  0  0  0  0  0  0  0
   -1.7565   -1.7553    3.9480 H   0  0  0  0  0  0  0  0  0  0  0  0
   -0.5107   -1.1775    5.0805 H   0  0  0  0  0  0  0  0  0  0  0  0
   -0.5472   -0.5654    3.4095 H   0  0  0  0  0  0  0  0  0  0  0  0
    3.4348   -7.8019    5.0646 H   0  0  0  0  0  0  0  0  0  0  0  0
    5.0543   -9.4147    5.9693 H   0  0  0  0  0  0  0  0  0  0  0  0
    7.2815   -8.6622    6.6856 H   0  0  0  0  0  0  0  0  0  0  0  0
    6.2686   -4.6418    5.5728 H   0  0  0  0  0  0  0  0  0  0  0  0
    9.8479   -7.5450    6.3507 H   0  0  0  0  0  0  0  0  0  0  0  0
    9.8986   -6.6372    7.8809 H   0  0  0  0  0  0  0  0  0  0  0  0
    8.7127   -7.9464    7.6616 H   0  0  0  0  0  0  0  0  0  0  0  0
    1.1089   -2.8992   -3.6137 H   0  0  0  0  0  0  0  0  0  0  0  0
   -0.1381   -2.7240   -2.3520 H   0  0  0  0  0  0  0  0  0  0  0  0
   -0.8230   -4.2342   -4.2748 H   0  0  0  0  0  0  0  0  0  0  0  0
   -1.9188   -2.8555   -4.0108 H   0  0  0  0  0  0  0  0  0  0  0  0
   -0.6840   -1.0502   -6.8969 H   0  0  0  0  0  0  0  0  0  0  0  0
   -1.8377   -0.9970   -5.5413 H   0  0  0  0  0  0  0  0  0  0  0  0
   -0.0063    0.5108   -5.0169 H   0  0  0  0  0  0  0  0  0  0  0  0
    1.1963   -0.7535   -5.3814 H   0  0  0  0  0  0  0  0  0  0  0  0
  1  2  1  0  0  0  0
  1 34  1  0  0  0  0
  1 35  1  0  0  0  0
  1 36  1  0  0  0  0
  2  6  1  0  0  0  0
  2  3  2  0  0  0  0
  3  4  1  0  0  0  0
  3 26  1  0  0  0  0
  4  5  1  0  0  0  0
  5  6  2  0  0  0  0
  5  7  1  0  0  0  0
  7 11  1  0  0  0  0
  7  8  2  0  0  0  0
  8  9  1  0  0  0  0
  8 37  1  0  0  0  0
  9 10  2  0  0  0  0
  9 13  1  0  0  0  0
 10 11  1  0  0  0  0
 10 38  1  0  0  0  0
 11 12  1  0  0  0  0
 12 39  1  0  0  0  0
 12 40  1  0  0  0  0
 12 41  1  0  0  0  0
 13 14  2  0  0  0  0
 13 15  2  0  0  0  0
 13 16  1  0  0  0  0
 16 17  1  0  0  0  0
 17 22  2  0  0  0  0
 17 18  1  0  0  0  0
 18 19  2  0  0  0  0
 18 42  1  0  0  0  0
 19 20  1  0  0  0  0
 19 43  1  0  0  0  0
 20 21  2  0  0  0  0
 20 44  1  0  0  0  0
 21 22  1  0  0  0  0
 21 23  1  0  0  0  0
 22 45  1  0  0  0  0
 23 24  2  0  0  0  0
 23 25  1  0  0  0  0
 25 46  1  0  0  0  0
 25 47  1  0  0  0  0
 25 48  1  0  0  0  0
 26 27  2  0  0  0  0
 26 28  1  0  0  0  0
 28 33  1  0  0  0  0
 28 29  1  0  0  0  0
 29 30  1  0  0  0  0
 29 49  1  0  0  0  0
 29 50  1  0  0  0  0
 30 31  1  0  0  0  0
 30 51  1  0  0  0  0
 30 52  1  0  0  0  0
 31 32  1  0  0  0  0
 32 33  1  0  0  0  0
 32 53  1  0  0  0  0
 32 54  1  0  0  0  0
 33 55  1  0  0  0  0
 33 56  1  0  0  0  0
M  END
$$$$
ZINC13026613
 OpenBabel01252620473D

 55 57  0  0  1  0  0  0  0  0999 V2000
   -0.0184    1.5028    0.0103 C   0  0  0  0  0  0  0  0  0  0  0  0
    0.0021   -0.0041    0.0020 C   0  0  0  0  0  0  0  0  0  0  0  0
    0.0216   -0.6588    1.1221 N   0  0  0  0  0  0  0  0  0  0  0  0
    0.0237    0.0351    2.3392 N   0  0  0  0  0  0  0  0  0  0  0  0
    0.0440   -0.6450    3.5026 C   0  0  0  0  0  0  0  0  0  0  0  0
    0.0604   -1.8579    3.4959 O   0  0  0  0  0  0  0  0  0  0  0  0
    0.0462    0.1014    4.8118 C   0  0  0  0  0  0  0  0  0  0  0  0
    0.0704   -0.8839    5.9517 C   0  0  0  0  0  0  0  0  0  0  0  0
    1.2435   -1.2305    6.5241 C   0  0  0  0  0  0  0  0  0  0  0  0
    1.2405   -2.1583    7.5937 C   0  0  0  0  0  0  0  0  0  0  0  0
    2.2856   -2.4859    8.1261 O   0  0  0  0  0  0  0  0  0  0  0  0
    0.0695   -2.6753    8.0175 N   0  0  0  0  0  0  0  0  0  0  0  0
    0.0591   -3.3115    8.7497 H   0  0  0  0  0  0  0  0  0  0  0  0
   -1.0851   -2.3118    7.4290 C   0  0  0  0  0  0  0  0  0  0  0  0
   -2.5612   -2.9794    7.9825 S   0  0  0  0  0  0  0  0  0  0  0  0
   -1.0962   -1.4272    6.4153 N   0  0  0  0  0  0  0  0  0  0  0  0
   -1.9391   -1.1752    6.0068 H   0  0  0  0  0  0  0  0  0  0  0  0
   -0.0001   -0.7346   -1.2792 C   0  0  0  0  0  0  0  0  0  0  0  0
   -0.0153   -0.0329   -2.4870 C   0  0  0  0  0  0  0  0  0  0  0  0
   -0.0173   -0.7227   -3.6815 C   0  0  0  0  0  0  0  0  0  0  0  0
   -0.0048   -2.1063   -3.6852 C   0  0  0  0  0  0  0  0  0  0  0  0
    0.0103   -2.8079   -2.4926 C   0  0  0  0  0  0  0  0  0  0  0  0
    0.0188   -2.1312   -1.2907 C   0  0  0  0  0  0  0  0  0  0  0  0
   -0.0086   -2.9790   -5.2159 S   0  0  0  0  0  0  0  0  0  0  0  0
   -0.5457   -4.2670   -4.9477 O   0  0  0  0  0  0  0  0  0  0  0  0
   -0.5749   -2.1034   -6.1812 O   0  0  0  0  0  0  0  0  0  0  0  0
    1.5721   -3.2071   -5.6534 N   0  0  0  0  0  0  0  0  0  0  0  0
    2.2737   -2.2091   -6.4722 C   0  0  0  0  0  0  0  0  0  0  0  0
    2.8733   -2.9088   -7.6960 C   0  0  0  0  0  0  0  0  0  0  0  0
    3.7527   -4.0727   -7.2333 C   0  0  1  0  0  0  0  0  0  0  0  0
    2.8991   -5.0861   -6.4675 C   0  0  0  0  0  0  0  0  0  0  0  0
    2.3015   -4.4085   -5.2251 C   0  0  0  0  0  0  0  0  0  0  0  0
    4.3714   -4.7423   -8.4333 C   0  0  0  0  0  0  0  0  0  0  0  0
    5.5299   -5.1200   -8.3908 O   0  0  0  0  0  0  0  0  0  0  0  0
    3.7135   -4.9065   -9.4465 O   0  0  0  0  0  1  0  0  0  0  0  0
    1.0042    1.8801    0.0026 H   0  0  0  0  0  0  0  0  0  0  0  0
   -0.5455    1.8639   -0.8728 H   0  0  0  0  0  0  0  0  0  0  0  0
   -0.5286    1.8543    0.9071 H   0  0  0  0  0  0  0  0  0  0  0  0
    0.0105    1.0050    2.3445 H   0  0  0  0  0  0  0  0  0  0  0  0
    0.9281    0.7398    4.8645 H   0  0  0  0  0  0  0  0  0  0  0  0
   -0.8516    0.7156    4.8814 H   0  0  0  0  0  0  0  0  0  0  0  0
    2.1715   -0.8059    6.1706 H   0  0  0  0  0  0  0  0  0  0  0  0
   -0.0259    1.0470   -2.4855 H   0  0  0  0  0  0  0  0  0  0  0  0
   -0.0291   -0.1815   -4.6160 H   0  0  0  0  0  0  0  0  0  0  0  0
    0.0197   -3.8878   -2.5030 H   0  0  0  0  0  0  0  0  0  0  0  0
    0.0355   -2.6800   -0.3607 H   0  0  0  0  0  0  0  0  0  0  0  0
    1.5697   -1.4432   -6.7976 H   0  0  0  0  0  0  0  0  0  0  0  0
    3.0706   -1.7508   -5.8864 H   0  0  0  0  0  0  0  0  0  0  0  0
    2.0703   -3.2883   -8.3279 H   0  0  0  0  0  0  0  0  0  0  0  0
    3.4772   -2.1989   -8.2614 H   0  0  0  0  0  0  0  0  0  0  0  0
    4.5408   -3.6956   -6.5816 H   0  0  0  0  0  0  0  0  0  0  0  0
    2.0959   -5.4452   -7.1109 H   0  0  0  0  0  0  0  0  0  0  0  0
    3.5213   -5.9261   -6.1585 H   0  0  0  0  0  0  0  0  0  0  0  0
    3.1006   -4.1259   -4.5397 H   0  0  0  0  0  0  0  0  0  0  0  0
    1.6159   -5.0942   -4.7273 H   0  0  0  0  0  0  0  0  0  0  0  0
  1  2  1  0  0  0  0
  1 36  1  0  0  0  0
  1 37  1  0  0  0  0
  1 38  1  0  0  0  0
  2  3  2  0  0  0  0
  2 18  1  0  0  0  0
  3  4  1  0  0  0  0
  4  5  1  0  0  0  0
  4 39  1  0  0  0  0
  5  6  2  0  0  0  0
  5  7  1  0  0  0  0
  7  8  1  0  0  0  0
  7 40  1  0  0  0  0
  7 41  1  0  0  0  0
  8 16  1  0  0  0  0
  8  9  2  0  0  0  0
  9 10  1  0  0  0  0
  9 42  1  0  0  0  0
 10 11  2  0  0  0  0
 10 12  1  0  0  0  0
 12 13  1  0  0  0  0
 12 14  1  0  0  0  0
 14 15  2  0  0  0  0
 14 16  1  0  0  0  0
 16 17  1  0  0  0  0
 18 23  2  0  0  0  0
 18 19  1  0  0  0  0
 19 20  2  0  0  0  0
 19 43  1  0  0  0  0
 20 21  1  0  0  0  0
 20 44  1  0  0  0  0
 21 22  2  0  0  0  0
 21 24  1  0  0  0  0
 22 23  1  0  0  0  0
 22 45  1  0  0  0  0
 23 46  1  0  0  0  0
 24 25  2  0  0  0  0
 24 26  2  0  0  0  0
 24 27  1  0  0  0  0
 27 32  1  0  0  0  0
 27 28  1  0  0  0  0
 28 29  1  0  0  0  0
 28 47  1  0  0  0  0
 28 48  1  0  0  0  0
 29 30  1  0  0  0  0
 29 49  1  0  0  0  0
 29 50  1  0  0  0  0
 30 31  1  0  0  0  0
 30 33  1  0  0  0  0
 30 51  1  1  0  0  0
 31 32  1  0  0  0  0
 31 52  1  0  0  0  0
 31 53  1  0  0  0  0
 32 54  1  0  0  0  0
 32 55  1  0  0  0  0
 33 34  2  0  0  0  0
 33 35  1  0  0  0  0
M  END
$$$$
ZINC37866338
 OpenBabel01252620473D

 47 49  0  0  0  0  0  0  0  0999 V2000
   -0.0184    1.5028    0.0103 C   0  0  0  0  0  0  0  0  0  0  0  0
    0.0021   -0.0041    0.0020 C   0  0  0  0  0  0  0  0  0  0  0  0
    0.0216   -0.6591    1.1225 N   0  0  0  0  0  0  0  0  0  0  0  0
    0.0237    0.0348    2.3396 N   0  0  0  0  0  0  0  0  0  0  0  0
    0.0440   -0.6452    3.5030 C   0  0  0  0  0  0  0  0  0  0  0  0
    0.0605   -1.8615    3.4963 O   0  0  0  0  0  0  0  0  0  0  0  0
    0.0462    0.0852    4.7842 C   0  0  0  0  0  0  0  0  0  0  0  0
    0.0214    1.4831    4.7937 C   0  0  0  0  0  0  0  0  0  0  0  0
    0.0230    2.1617    5.9908 C   0  0  0  0  0  0  0  0  0  0  0  0
    0.0493    1.4578    7.1916 C   0  0  0  0  0  0  0  0  0  0  0  0
    0.0741    0.0658    7.1857 C   0  0  0  0  0  0  0  0  0  0  0  0
    0.0672   -0.6188    5.9920 C   0  0  0  0  0  0  0  0  0  0  0  0
    0.0514    2.1466    8.3997 N   0  0  0  0  0  2  0  0  0  0  0  0
    0.0827    1.3111    9.8292 S   0  0  0  0  0  0  0  0  0  0  0  0
   -1.1497    0.6089    9.9162 O   0  0  0  0  0  0  0  0  0  0  0  0
    1.3405    0.6524    9.8872 O   0  0  0  0  0  0  0  0  0  0  0  0
    0.0770    2.5012   11.1285 C   0  0  0  0  0  0  0  0  0  0  0  0
   -0.9783    3.0553   11.7739 C   0  0  0  0  0  0  0  0  0  0  0  0
   -0.7422    3.9792   12.7745 C   0  0  0  0  0  0  0  0  0  0  0  0
    0.5377    4.3040   13.0807 C   0  0  0  0  0  0  0  0  0  0  0  0
    1.4599    3.2844   11.9417 S   0  0  0  0  0  0  0  0  0  0  0  0
   -0.0001   -0.7342   -1.2786 C   0  0  0  0  0  0  0  0  0  0  0  0
   -0.0154   -0.0311   -2.4862 C   0  0  0  0  0  0  0  0  0  0  0  0
   -0.0174   -0.7179   -3.6809 C   0  0  0  0  0  0  0  0  0  0  0  0
   -0.0048   -2.1068   -3.6860 C   0  0  0  0  0  0  0  0  0  0  0  0
    0.0104   -2.8098   -2.4882 C   0  0  0  0  0  0  0  0  0  0  0  0
    0.0188   -2.1315   -1.2888 C   0  0  0  0  0  0  0  0  0  0  0  0
   -0.0078   -2.7796   -4.8662 O   0  0  0  0  0  0  0  0  0  0  0  0
    0.0057   -4.2070   -4.7992 C   0  0  0  0  0  0  0  0  0  0  0  0
    1.0042    1.8801    0.0026 H   0  0  0  0  0  0  0  0  0  0  0  0
   -0.5455    1.8639   -0.8728 H   0  0  0  0  0  0  0  0  0  0  0  0
   -0.5286    1.8543    0.9071 H   0  0  0  0  0  0  0  0  0  0  0  0
    0.0105    1.0047    2.3449 H   0  0  0  0  0  0  0  0  0  0  0  0
    0.0013    2.0298    3.8624 H   0  0  0  0  0  0  0  0  0  0  0  0
    0.0042    3.2415    5.9988 H   0  0  0  0  0  0  0  0  0  0  0  0
    0.0948   -0.4773    8.1189 H   0  0  0  0  0  0  0  0  0  0  0  0
    0.0819   -1.6987    5.9881 H   0  0  0  0  0  0  0  0  0  0  0  0
   -1.9886    2.7792   11.5101 H   0  0  0  0  0  0  0  0  0  0  0  0
   -1.5652    4.4359   13.3042 H   0  0  0  0  0  0  0  0  0  0  0  0
    0.9045    4.9967   13.8236 H   0  0  0  0  0  0  0  0  0  0  0  0
   -0.0259    1.0488   -2.4832 H   0  0  0  0  0  0  0  0  0  0  0  0
   -0.0292   -0.1753   -4.6147 H   0  0  0  0  0  0  0  0  0  0  0  0
    0.0201   -3.8898   -2.4970 H   0  0  0  0  0  0  0  0  0  0  0  0
    0.0355   -2.6789   -0.3579 H   0  0  0  0  0  0  0  0  0  0  0  0
    0.0017   -4.6182   -5.8087 H   0  0  0  0  0  0  0  0  0  0  0  0
    0.9028   -4.5377   -4.2758 H   0  0  0  0  0  0  0  0  0  0  0  0
   -0.8770   -4.5539   -4.2621 H   0  0  0  0  0  0  0  0  0  0  0  0
  1  2  1  0  0  0  0
  1 30  1  0  0  0  0
  1 31  1  0  0  0  0
  1 32  1  0  0  0  0
  2  3  2  0  0  0  0
  2 22  1  0  0  0  0
  3  4  1  0  0  0  0
  4  5  1  0  0  0  0
  4 33  1  0  0  0  0
  5  6  2  0  0  0  0
  5  7  1  0  0  0  0
  7 12  2  0  0  0  0
  7  8  1  0  0  0  0
  8  9  2  0  0  0  0
  8 34  1  0  0  0  0
  9 10  1  0  0  0  0
  9 35  1  0  0  0  0
 10 11  2  0  0  0  0
 10 13  1  0  0  0  0
 11 12  1  0  0  0  0
 11 36  1  0  0  0  0
 12 37  1  0  0  0  0
 13 14  1  0  0  0  0
 14 15  2  0  0  0  0
 14 16  2  0  0  0  0
 14 17  1  0  0  0  0
 17 21  1  0  0  0  0
 17 18  2  0  0  0  0
 18 19  1  0  0  0  0
 18 38  1  0  0  0  0
 19 20  2  0  0  0  0
 19 39  1  0  0  0  0
 20 21  1  0  0  0  0
 20 40  1  0  0  0  0
 22 27  2  0  0  0  0
 22 23  1  0  0  0  0
 23 24  2  0  0  0  0
 23 41  1  0  0  0  0
 24 25  1  0  0  0  0
 24 42  1  0  0  0  0
 25 26  2  0  0  0  0
 25 28  1  0  0  0  0
 26 27  1  0  0  0  0
 26 43  1  0  0  0  0
 27 44  1  0  0  0  0
 28 29  1  0  0  0  0
 29 45  1  0  0  0  0
 29 46  1  0  0  0  0
 29 47  1  0  0  0  0
M  END
$$$$
ZINC10515990
 OpenBabel01252620473D

 56 57  0  0  0  0  0  0  0  0999 V2000
   -0.2001   11.5345   -3.5126 C   0  0  0  0  0  0  0  0  0  0  0  0
    0.7284   10.3346   -3.7097 C   0  0  0  0  0  0  0  0  0  0  0  0
    0.8483    9.5977   -2.4492 N   0  0  0  0  0  0  0  0  0  0  0  0
    1.8318   10.0156   -1.4471 C   0  0  0  0  0  0  0  0  0  0  0  0
    3.1893    9.3893   -1.7725 C   0  0  0  0  0  0  0  0  0  0  0  0
   -0.1279    8.2922   -2.1571 S   0  0  0  0  0  0  0  0  0  0  0  0
   -1.2838    8.4604   -2.9663 O   0  0  0  0  0  0  0  0  0  0  0  0
   -0.2007    8.1473   -0.7454 O   0  0  0  0  0  0  0  0  0  0  0  0
    0.7109    6.8677   -2.7670 C   0  0  0  0  0  0  0  0  0  0  0  0
    0.5190    6.4601   -4.0746 C   0  0  0  0  0  0  0  0  0  0  0  0
    1.1752    5.3429   -4.5572 C   0  0  0  0  0  0  0  0  0  0  0  0
    2.0291    4.6330   -3.7357 C   0  0  0  0  0  0  0  0  0  0  0  0
    2.2203    5.0367   -2.4206 C   0  0  0  0  0  0  0  0  0  0  0  0
    1.5594    6.1598   -1.9390 C   0  0  0  0  0  0  0  0  0  0  0  0
    3.0797    4.3186   -1.5859 N   0  0  0  0  0  0  0  0  0  0  0  0
    2.7259    4.1556    0.0236 S   0  0  0  0  0  0  0  0  0  0  0  0
    2.5176    5.4675    0.5285 O   0  0  0  0  0  0  0  0  0  0  0  0
    3.7011    3.2763    0.5667 O   0  0  0  0  0  0  0  0  0  0  0  0
    1.1779    3.3215    0.1349 C   0  0  0  0  0  0  0  0  0  0  0  0
    1.1436    1.9392    0.1968 C   0  0  0  0  0  0  0  0  0  0  0  0
   -0.0638    1.2791    0.2844 C   0  0  0  0  0  0  0  0  0  0  0  0
   -1.2561    2.0098    0.3054 C   0  0  0  0  0  0  0  0  0  0  0  0
   -1.2128    3.4065    0.2478 C   0  0  0  0  0  0  0  0  0  0  0  0
    0.0026    4.0519    0.1604 C   0  0  0  0  0  0  0  0  0  0  0  0
   -2.5493    1.3128    0.3926 C   0  0  0  0  0  0  0  0  0  0  0  0
   -3.6974    2.0212    0.4126 C   0  0  0  0  0  0  0  0  0  0  0  0
   -4.9824    1.3286    0.4992 C   0  0  0  0  0  0  0  0  0  0  0  0
   -5.0162    0.1141    0.5533 O   0  0  0  0  0  0  0  0  0  0  0  0
    2.7487    3.4190   -4.2644 C   0  0  0  0  0  0  0  0  0  0  0  0
    0.9630    4.9026   -5.9827 C   0  0  0  0  0  0  0  0  0  0  0  0
   -0.2893   12.0828   -4.4504 H   0  0  0  0  0  0  0  0  0  0  0  0
   -1.1844   11.1850   -3.2010 H   0  0  0  0  0  0  0  0  0  0  0  0
    0.2119   12.1907   -2.7459 H   0  0  0  0  0  0  0  0  0  0  0  0
    1.7127   10.6841   -4.0213 H   0  0  0  0  0  0  0  0  0  0  0  0
    0.3163    9.6784   -4.4763 H   0  0  0  0  0  0  0  0  0  0  0  0
    1.9212   11.1019   -1.4567 H   0  0  0  0  0  0  0  0  0  0  0  0
    1.5071    9.6865   -0.4600 H   0  0  0  0  0  0  0  0  0  0  0  0
    3.9210    9.7003   -1.0269 H   0  0  0  0  0  0  0  0  0  0  0  0
    3.0999    8.3030   -1.7629 H   0  0  0  0  0  0  0  0  0  0  0  0
    3.5140    9.7184   -2.7596 H   0  0  0  0  0  0  0  0  0  0  0  0
   -0.1452    7.0156   -4.7202 H   0  0  0  0  0  0  0  0  0  0  0  0
    1.7093    6.4790   -0.9182 H   0  0  0  0  0  0  0  0  0  0  0  0
    3.8837    3.9154   -1.9490 H   0  0  0  0  0  0  0  0  0  0  0  0
    2.0650    1.3762    0.1767 H   0  0  0  0  0  0  0  0  0  0  0  0
   -0.0889    0.2005    0.3323 H   0  0  0  0  0  0  0  0  0  0  0  0
   -2.1291    3.9779    0.2672 H   0  0  0  0  0  0  0  0  0  0  0  0
    0.0375    5.1303    0.1120 H   0  0  0  0  0  0  0  0  0  0  0  0
   -2.5793    0.2343    0.4407 H   0  0  0  0  0  0  0  0  0  0  0  0
   -3.6674    3.0997    0.3645 H   0  0  0  0  0  0  0  0  0  0  0  0
    2.1377    2.5323   -4.0954 H   0  0  0  0  0  0  0  0  0  0  0  0
    2.9271    3.5390   -5.3330 H   0  0  0  0  0  0  0  0  0  0  0  0
    3.7016    3.3076   -3.7472 H   0  0  0  0  0  0  0  0  0  0  0  0
    1.6976    5.3872   -6.6259 H   0  0  0  0  0  0  0  0  0  0  0  0
    1.0788    3.8208   -6.0499 H   0  0  0  0  0  0  0  0  0  0  0  0
   -0.0408    5.1812   -6.3035 H   0  0  0  0  0  0  0  0  0  0  0  0
   -6.1304    2.0369    0.5192 O   0  0  0  0  0  1  0  0  0  0  0  0
  1  2  1  0  0  0  0
  1 31  1  0  0  0  0
  1 32  1  0  0  0  0
  1 33  1  0  0  0  0
  2  3  1  0  0  0  0
  2 34  1  0  0  0  0
  2 35  1  0  0  0  0
  3  4  1  0  0  0  0
  3  6  1  0  0  0  0
  4  5  1  0  0  0  0
  4 36  1  0  0  0  0
  4 37  1  0  0  0  0
  5 38  1  0  0  0  0
  5 39  1  0  0  0  0
  5 40  1  0  0  0  0
  6  7  2  0  0  0  0
  6  8  2  0  0  0  0
  6  9  1  0  0  0  0
  9 14  2  0  0  0  0
  9 10  1  0  0  0  0
 10 11  2  0  0  0  0
 10 41  1  0  0  0  0
 11 12  1  0  0  0  0
 11 30  1  0  0  0  0
 12 13  2  0  0  0  0
 12 29  1  0  0  0  0
 13 14  1  0  0  0  0
 13 15  1  0  0  0  0
 14 42  1  0  0  0  0
 15 16  1  0  0  0  0
 15 43  1  0  0  0  0
 16 17  2  0  0  0  0
 16 18  2  0  0  0  0
 16 19  1  0  0  0  0
 19 24  2  0  0  0  0
 19 20  1  0  0  0  0
 20 21  2  0  0  0  0
 20 44  1  0  0  0  0
 21 22  1  0  0  0  0
 21 45  1  0  0  0  0
 22 23  2  0  0  0  0
 22 25  1  0  0  0  0
 23 24  1  0  0  0  0
 23 46  1  0  0  0  0
 24 47  1  0  0  0  0
 25 26  2  0  0  0  0
 25 48  1  0  0  0  0
 26 27  1  0  0  0  0
 26 49  1  0  0  0  0
 27 28  2  0  0  0  0
 27 56  1  0  0  0  0
 29 50  1  0  0  0  0
 29 51  1  0  0  0  0
 29 52  1  0  0  0  0
 30 53  1  0  0  0  0
 30 54  1  0  0  0  0
 30 55  1  0  0  0  0
M  END
$$$$
ZINC08686738
 OpenBabel01252620473D

 49 51  0  0  0  0  0  0  0  0999 V2000
    0.7937    1.7138   -0.1370 C   0  0  0  0  0  0  0  0  0  0  0  0
    0.6512    0.2935   -0.0707 O   0  0  0  0  0  0  0  0  0  0  0  0
   -0.6114   -0.1950    0.0609 C   0  0  0  0  0  0  0  0  0  0  0  0
   -1.6890    0.6732    0.1191 C   0  0  0  0  0  0  0  0  0  0  0  0
   -2.9720    0.1752    0.2535 C   0  0  0  0  0  0  0  0  0  0  0  0
   -3.1837   -1.1889    0.3296 C   0  0  0  0  0  0  0  0  0  0  0  0
   -2.1137   -2.0620    0.2719 C   0  0  0  0  0  0  0  0  0  0  0  0
   -0.8243   -1.5700    0.1318 C   0  0  0  0  0  0  0  0  0  0  0  0
    0.2604   -2.4522    0.0673 N   0  0  0  0  0  2  0  0  0  0  0  0
    0.0048   -4.0862    0.1518 S   0  0  0  0  0  0  0  0  0  0  0  0
   -0.4882   -4.3531    1.4575 O   0  0  0  0  0  0  0  0  0  0  0  0
   -0.7116   -4.4464   -1.0214 O   0  0  0  0  0  0  0  0  0  0  0  0
    1.5805   -4.8665    0.0391 C   0  0  0  0  0  0  0  0  0  0  0  0
    2.0708   -5.5892    1.1094 C   0  0  0  0  0  0  0  0  0  0  0  0
    3.3125   -6.2039    1.0199 C   0  0  0  0  0  0  0  0  0  0  0  0
    4.0586   -6.0902   -0.1460 C   0  0  0  0  0  0  0  0  0  0  0  0
    3.5639   -5.3665   -1.2130 C   0  0  0  0  0  0  0  0  0  0  0  0
    2.3233   -4.7595   -1.1233 C   0  0  0  0  0  0  0  0  0  0  0  0
    1.7010   -3.8569   -2.4693 Cl  0  0  0  0  0  0  0  0  0  0  0  0
    3.8118   -6.9365    2.1031 N   0  0  0  0  0  0  0  0  0  0  0  0
    2.9669   -7.6149    2.9045 C   0  0  0  0  0  0  0  0  0  0  0  0
    1.7861   -7.6699    2.6330 O   0  0  0  0  0  0  0  0  0  0  0  0
    3.4893   -8.3053    4.1380 C   0  0  0  0  0  0  0  0  0  0  0  0
    2.3332   -8.9959    4.8642 C   0  0  0  0  0  0  0  0  0  0  0  0
    2.8556   -9.6863    6.0977 C   0  0  0  0  0  0  0  0  0  0  0  0
    4.0379   -9.6313    6.3696 O   0  0  0  0  0  0  0  0  0  0  0  0
    1.9702  -10.3973    6.9375 C   0  0  0  0  0  0  0  0  0  0  0  0
    2.2426  -11.0918    8.1125 C   0  0  0  0  0  0  0  0  0  0  0  0
    1.1640  -11.6890    8.7135 C   0  0  0  0  0  0  0  0  0  0  0  0
   -0.0618  -11.5684    8.1419 C   0  0  0  0  0  0  0  0  0  0  0  0
    0.2107  -10.6328    6.7734 S   0  0  0  0  0  0  0  0  0  0  0  0
    1.8483    1.9687   -0.2412 H   0  0  0  0  0  0  0  0  0  0  0  0
    0.2413    2.0947   -0.9960 H   0  0  0  0  0  0  0  0  0  0  0  0
    0.4002    2.1614    0.7756 H   0  0  0  0  0  0  0  0  0  0  0  0
   -1.5271    1.7393    0.0599 H   0  0  0  0  0  0  0  0  0  0  0  0
   -3.8110    0.8538    0.2994 H   0  0  0  0  0  0  0  0  0  0  0  0
   -4.1875   -1.5732    0.4349 H   0  0  0  0  0  0  0  0  0  0  0  0
   -2.2819   -3.1272    0.3320 H   0  0  0  0  0  0  0  0  0  0  0  0
    1.4888   -5.6758    2.0150 H   0  0  0  0  0  0  0  0  0  0  0  0
    5.0249   -6.5671   -0.2179 H   0  0  0  0  0  0  0  0  0  0  0  0
    4.1437   -5.2778   -2.1198 H   0  0  0  0  0  0  0  0  0  0  0  0
    4.7659   -6.9558    2.2770 H   0  0  0  0  0  0  0  0  0  0  0  0
    4.2335   -9.0481    3.8510 H   0  0  0  0  0  0  0  0  0  0  0  0
    3.9465   -7.5698    4.7999 H   0  0  0  0  0  0  0  0  0  0  0  0
    1.5889   -8.2531    5.1513 H   0  0  0  0  0  0  0  0  0  0  0  0
    1.8759   -9.7314    4.2023 H   0  0  0  0  0  0  0  0  0  0  0  0
    3.2390  -11.1566    8.5242 H   0  0  0  0  0  0  0  0  0  0  0  0
    1.2881  -12.2482    9.6291 H   0  0  0  0  0  0  0  0  0  0  0  0
   -0.9990  -11.9768    8.4901 H   0  0  0  0  0  0  0  0  0  0  0  0
  1  2  1  0  0  0  0
  1 32  1  0  0  0  0
  1 33  1  0  0  0  0
  1 34  1  0  0  0  0
  2  3  1  0  0  0  0
  3  8  2  0  0  0  0
  3  4  1  0  0  0  0
  4  5  2  0  0  0  0
  4 35  1  0  0  0  0
  5  6  1  0  0  0  0
  5 36  1  0  0  0  0
  6  7  2  0  0  0  0
  6 37  1  0  0  0  0
  7  8  1  0  0  0  0
  7 38  1  0  0  0  0
  8  9  1  0  0  0  0
  9 10  1  0  0  0  0
 10 11  2  0  0  0  0
 10 12  2  0  0  0  0
 10 13  1  0  0  0  0
 13 18  2  0  0  0  0
 13 14  1  0  0  0  0
 14 15  2  0  0  0  0
 14 39  1  0  0  0  0
 15 16  1  0  0  0  0
 15 20  1  0  0  0  0
 16 17  2  0  0  0  0
 16 40  1  0  0  0  0
 17 18  1  0  0  0  0
 17 41  1  0  0  0  0
 18 19  1  0  0  0  0
 20 21  1  0  0  0  0
 20 42  1  0  0  0  0
 21 22  2  0  0  0  0
 21 23  1  0  0  0  0
 23 24  1  0  0  0  0
 23 43  1  0  0  0  0
 23 44  1  0  0  0  0
 24 25  1  0  0  0  0
 24 45  1  0  0  0  0
 24 46  1  0  0  0  0
 25 26  2  0  0  0  0
 25 27  1  0  0  0  0
 27 31  1  0  0  0  0
 27 28  2  0  0  0  0
 28 29  1  0  0  0  0
 28 47  1  0  0  0  0
 29 30  2  0  0  0  0
 29 48  1  0  0  0  0
 30 31  1  0  0  0  0
 30 49  1  0  0  0  0
M  END
$$$$
ZINC44136102
 OpenBabel01252620473D

 45 47  0  0  1  0  0  0  0  0999 V2000
   -0.0184    1.5028    0.0103 C   0  0  0  0  0  0  0  0  0  0  0  0
    0.0021   -0.0041    0.0020 C   0  0  0  0  0  0  0  0  0  0  0  0
    1.0565   -0.5939   -0.0112 O   0  0  0  0  0  0  0  0  0  0  0  0
   -1.1511   -0.6910    0.0093 O   0  0  0  0  0  0  0  0  0  0  0  0
   -1.0570   -2.1168    0.0008 C   0  0  0  0  0  0  0  0  0  0  0  0
   -2.4627   -2.7208    0.0110 C   0  0  2  0  0  0  0  0  0  0  0  0
   -3.0414   -2.3291    0.8475 H   0  0  0  0  0  0  0  0  0  0  0  0
   -2.3916   -4.2679    0.0734 C   0  0  1  0  0  0  0  0  0  0  0  0
   -2.3178   -4.6126    1.1048 H   0  0  0  0  0  0  0  0  0  0  0  0
   -3.7467   -4.6803   -0.5513 C   0  0  1  0  0  0  0  0  0  0  0  0
   -4.4760   -4.8981    0.2291 H   0  0  0  0  0  0  0  0  0  0  0  0
   -4.1794   -3.4448   -1.3643 C   0  0  1  0  0  0  0  0  0  0  0  0
   -5.1115   -3.0457   -0.9642 H   0  0  0  0  0  0  0  0  0  0  0  0
   -3.1366   -2.4613   -1.2393 O   0  0  0  0  0  0  0  0  0  0  0  0
   -4.3583   -3.8120   -2.7712 N   0  0  0  0  0  0  0  0  0  0  0  0
   -3.4287   -3.6903   -3.7610 C   0  0  0  0  0  0  0  0  0  0  0  0
   -3.9221   -4.1112   -4.8891 N   0  0  0  0  0  0  0  0  0  0  0  0
   -5.1968   -4.5289   -4.6961 C   0  0  0  0  0  0  0  0  0  0  0  0
   -5.4899   -4.3468   -3.3330 C   0  0  0  0  0  0  0  0  0  0  0  0
   -6.6907   -4.6888   -2.8795 N   0  0  0  0  0  0  0  0  0  0  0  0
   -7.5955   -5.1947   -3.6930 C   0  0  0  0  0  0  0  0  0  0  0  0
   -7.3628   -5.3864   -4.9799 N   0  0  0  0  0  0  0  0  0  0  0  0
   -6.1947   -5.0663   -5.5228 C   0  0  0  0  0  0  0  0  0  0  0  0
   -5.9661   -5.2679   -6.8428 O   0  5  0  0  0  0  0  0  0  0  0  0
   -9.1497   -5.6256   -3.0509 Cl  0  0  0  0  0  0  0  0  0  0  0  0
   -3.5790   -5.8121   -1.4074 O   0  0  0  0  0  0  0  0  0  0  0  0
   -4.6229   -6.6478   -1.5242 C   0  0  0  0  0  0  0  0  0  0  0  0
   -5.6452   -6.4257   -0.9196 O   0  0  0  0  0  0  0  0  0  0  0  0
   -4.5199   -7.8630   -2.4095 C   0  0  0  0  0  0  0  0  0  0  0  0
   -1.2994   -4.7600   -0.7056 O   0  0  0  0  0  0  0  0  0  0  0  0
   -0.1268   -4.9269   -0.0740 C   0  0  0  0  0  0  0  0  0  0  0  0
   -0.0309   -4.6639    1.1014 O   0  0  0  0  0  0  0  0  0  0  0  0
    1.0701   -5.4424   -0.8308 C   0  0  0  0  0  0  0  0  0  0  0  0
    1.0042    1.8801    0.0026 H   0  0  0  0  0  0  0  0  0  0  0  0
   -0.5455    1.8639   -0.8728 H   0  0  0  0  0  0  0  0  0  0  0  0
   -0.5286    1.8543    0.9071 H   0  0  0  0  0  0  0  0  0  0  0  0
   -0.5289   -2.4407   -0.8960 H   0  0  0  0  0  0  0  0  0  0  0  0
   -0.5119   -2.4503    0.8838 H   0  0  0  0  0  0  0  0  0  0  0  0
   -2.4298   -3.3017   -3.6283 H   0  0  0  0  0  0  0  0  0  0  0  0
   -3.7096   -8.5014   -2.0573 H   0  0  0  0  0  0  0  0  0  0  0  0
   -5.4584   -8.4163   -2.3777 H   0  0  0  0  0  0  0  0  0  0  0  0
   -4.3170   -7.5502   -3.4338 H   0  0  0  0  0  0  0  0  0  0  0  0
    0.7933   -5.6220   -1.8697 H   0  0  0  0  0  0  0  0  0  0  0  0
    1.8709   -4.7040   -0.7907 H   0  0  0  0  0  0  0  0  0  0  0  0
    1.4118   -6.3739   -0.3795 H   0  0  0  0  0  0  0  0  0  0  0  0
  1  2  1  0  0  0  0
  1 34  1  0  0  0  0
  1 35  1  0  0  0  0
  1 36  1  0  0  0  0
  2  3  2  0  0  0  0
  2  4  1  0  0  0  0
  4  5  1  0  0  0  0
  5  6  1  0  0  0  0
  5 37  1  0  0  0  0
  5 38  1  0  0  0  0
  6  7  1  1  0  0  0
  6 14  1  0  0  0  0
  6  8  1  0  0  0  0
  8  9  1  1  0  0  0
  8 10  1  0  0  0  0
  8 30  1  0  0  0  0
 10 11  1  1  0  0  0
 10 12  1  0  0  0  0
 10 26  1  0  0  0  0
 12 13  1  1  0  0  0
 12 14  1  0  0  0  0
 12 15  1  0  0  0  0
 15 19  1  0  0  0  0
 15 16  1  0  0  0  0
 16 17  2  0  0  0  0
 16 39  1  0  0  0  0
 17 18  1  0  0  0  0
 18 23  2  0  0  0  0
 18 19  1  0  0  0  0
 19 20  2  0  0  0  0
 20 21  1  0  0  0  0
 21 22  2  0  0  0  0
 21 25  1  0  0  0  0
 22 23  1  0  0  0  0
 23 24  1  0  0  0  0
 26 27  1  0  0  0  0
 27 28  2  0  0  0  0
 27 29  1  0  0  0  0
 29 40  1  0  0  0  0
 29 41  1  0  0  0  0
 29 42  1  0  0  0  0
 30 31  1  0  0  0  0
 31 32  2  0  0  0  0
 31 33  1  0  0  0  0
 33 43  1  0  0  0  0
 33 44  1  0  0  0  0
 33 45  1  0  0  0  0
M  CHG  1  24  -1
M  END
$$$$
ZINC01725643
 OpenBabel01252620473D

 36 35  0  0  0  0  0  0  0  0999 V2000
   -2.5851   -0.1113    3.9239 C   0  0  0  0  0  0  0  0  0  0  0  0
   -2.4548    1.3897    3.8938 C   0  0  0  0  0  0  0  0  0  0  0  0
   -3.4436    2.0806    3.8366 O   0  0  0  0  0  0  0  0  0  0  0  0
   -1.0905    2.0286    3.9351 C   0  0  0  0  0  0  0  0  0  0  0  0
   -0.2723    1.5623    2.7293 C   0  0  0  0  0  0  0  0  0  0  0  0
   -0.9873    1.9696    1.4395 C   0  0  0  0  0  0  0  0  0  0  0  0
   -0.0172    1.4168    0.0098 S   0  0  0  0  0  0  0  0  0  0  0  0
    0.0021   -0.0041    0.0020 O   0  0  0  0  0  0  0  0  0  0  0  0
    1.2149    2.1246    0.0019 O   0  0  0  0  0  0  0  0  0  0  0  0
   -1.0144    1.9848   -1.3950 C   0  0  0  0  0  0  0  0  0  0  0  0
   -0.3755    1.6213    5.2250 C   0  0  0  0  0  0  0  0  0  0  0  0
   -1.1937    2.0876    6.4308 C   0  0  0  0  0  0  0  0  0  0  0  0
   -0.3459    1.6046    7.9600 S   0  0  0  0  0  0  0  0  0  0  0  0
   -0.3302    0.1858    8.0364 O   0  0  0  0  0  0  0  0  0  0  0  0
    0.8827    2.3145    8.0362 O   0  0  0  0  0  0  0  0  0  0  0  0
   -1.4545    2.2364    9.2494 C   0  0  0  0  0  0  0  0  0  0  0  0
   -1.2365    3.5279    3.8936 C   0  0  0  0  0  0  0  0  0  0  0  0
   -2.3356    4.0266    3.8364 O   0  0  0  0  0  0  0  0  0  0  0  0
   -1.6754   -0.5240    3.9713 H   0  0  0  0  0  0  0  0  0  0  0  0
   -3.1647   -0.4083    4.7979 H   0  0  0  0  0  0  0  0  0  0  0  0
   -3.0912   -0.4503    3.0200 H   0  0  0  0  0  0  0  0  0  0  0  0
   -0.1667    0.4778    2.7593 H   0  0  0  0  0  0  0  0  0  0  0  0
    0.7145    2.0244    2.7592 H   0  0  0  0  0  0  0  0  0  0  0  0
   -1.0929    3.0541    1.4095 H   0  0  0  0  0  0  0  0  0  0  0  0
   -1.9741    1.5075    1.4096 H   0  0  0  0  0  0  0  0  0  0  0  0
   -2.0004    1.5224   -1.3512 H   0  0  0  0  0  0  0  0  0  0  0  0
   -1.1193    3.0689   -1.3513 H   0  0  0  0  0  0  0  0  0  0  0  0
   -0.5226    1.7046   -2.3265 H   0  0  0  0  0  0  0  0  0  0  0  0
   -0.2699    0.5368    5.2549 H   0  0  0  0  0  0  0  0  0  0  0  0
    0.6113    2.0834    5.2548 H   0  0  0  0  0  0  0  0  0  0  0  0
   -1.2993    3.1720    6.4008 H   0  0  0  0  0  0  0  0  0  0  0  0
   -2.1805    1.6255    6.4009 H   0  0  0  0  0  0  0  0  0  0  0  0
   -2.4345    1.7704    9.1463 H   0  0  0  0  0  0  0  0  0  0  0  0
   -1.0419    2.0013   10.2305 H   0  0  0  0  0  0  0  0  0  0  0  0
   -1.5533    3.3170    9.1462 H   0  0  0  0  0  0  0  0  0  0  0  0
   -0.1455    4.3095    3.9203 O   0  0  0  0  0  1  0  0  0  0  0  0
  1  2  1  0  0  0  0
  1 19  1  0  0  0  0
  1 20  1  0  0  0  0
  1 21  1  0  0  0  0
  2  3  2  0  0  0  0
  2  4  1  0  0  0  0
  4  5  1  0  0  0  0
  4 11  1  0  0  0  0
  4 17  1  0  0  0  0
  5  6  1  0  0  0  0
  5 22  1  0  0  0  0
  5 23  1  0  0  0  0
  6  7  1  0  0  0  0
  6 24  1  0  0  0  0
  6 25  1  0  0  0  0
  7  8  2  0  0  0  0
  7  9  2  0  0  0  0
  7 10  1  0  0  0  0
 10 26  1  0  0  0  0
 10 27  1  0  0  0  0
 10 28  1  0  0  0  0
 11 12  1  0  0  0  0
 11 29  1  0  0  0  0
 11 30  1  0  0  0  0
 12 13  1  0  0  0  0
 12 31  1  0  0  0  0
 12 32  1  0  0  0  0
 13 14  2  0  0  0  0
 13 15  2  0  0  0  0
 13 16  1  0  0  0  0
 16 33  1  0  0  0  0
 16 34  1  0  0  0  0
 16 35  1  0  0  0  0
 17 18  2  0  0  0  0
 17 36  1  0  0  0  0
M  END
$$$$
ZINC40475321
 OpenBabel01252620473D

 35 37  0  0  1  0  0  0  0  0999 V2000
   -1.1629    1.4508    1.1688 C   0  0  0  0  0  0  0  0  0  0  0  0
   -1.2238    0.0240    1.2203 O   0  0  0  0  0  0  0  0  0  0  0  0
   -1.1891   -0.6337    0.0422 C   0  0  0  0  0  0  0  0  0  0  0  0
   -1.1092   -0.0110   -1.0001 O   0  0  0  0  0  0  0  0  0  0  0  0
   -1.2455   -2.0481    0.0192 C   0  0  0  0  0  0  0  0  0  0  0  0
   -2.4639   -2.6029    0.1108 C   0  0  0  0  0  0  0  0  0  0  0  0
   -2.7361   -4.3402    0.0875 S   0  0  0  0  0  0  0  0  0  0  0  0
   -1.1944   -4.9766   -0.5324 C   0  0  0  0  0  0  0  0  0  0  0  0
   -0.0881   -4.1741   -0.5526 C   0  0  0  0  0  0  0  0  0  0  0  0
    1.1505   -5.2439   -1.2468 S   0  0  0  0  0  0  0  0  0  0  0  0
    0.1013   -6.6775   -1.4511 C   0  0  0  0  0  0  0  0  0  0  0  0
    0.4968   -8.2700   -2.0934 S   0  0  0  0  0  1  0  0  0  0  0  0
   -1.0482   -6.2224   -0.9914 N   0  0  0  0  0  0  0  0  0  0  0  0
    0.0548   -2.7669   -0.1103 C   0  0  2  0  0  0  0  0  0  0  0  0
    0.6781   -2.2345   -0.8287 H   0  0  0  0  0  0  0  0  0  0  0  0
    0.7485   -2.7547    1.2274 C   0  0  0  0  0  0  0  0  0  0  0  0
    1.9934   -2.1600    1.3673 C   0  0  0  0  0  0  0  0  0  0  0  0
    2.5940   -2.1726    2.6167 C   0  0  0  0  0  0  0  0  0  0  0  0
    1.9367   -2.7732    3.6740 C   0  0  0  0  0  0  0  0  0  0  0  0
    0.7534   -3.3296    3.5040 N   0  0  0  0  0  0  0  0  0  0  0  0
    0.1497   -3.3309    2.3314 C   0  0  0  0  0  0  0  0  0  0  0  0
   -3.6375   -1.7077    0.2383 C   0  0  0  0  0  0  0  0  0  0  0  0
   -3.4959   -0.5051    0.1524 O   0  0  0  0  0  0  0  0  0  0  0  0
   -4.8617   -2.2282    0.4495 O   0  0  0  0  0  0  0  0  0  0  0  0
   -5.9479   -1.3066    0.5625 C   0  0  0  0  0  0  0  0  0  0  0  0
   -1.1994    1.8528    2.1813 H   0  0  0  0  0  0  0  0  0  0  0  0
   -0.2334    1.7577    0.6893 H   0  0  0  0  0  0  0  0  0  0  0  0
   -2.0095    1.8301    0.5966 H   0  0  0  0  0  0  0  0  0  0  0  0
    2.4836   -1.6983    0.5230 H   0  0  0  0  0  0  0  0  0  0  0  0
    3.5634   -1.7192    2.7621 H   0  0  0  0  0  0  0  0  0  0  0  0
    2.3978   -2.7873    4.6505 H   0  0  0  0  0  0  0  0  0  0  0  0
   -0.8219   -3.7919    2.2318 H   0  0  0  0  0  0  0  0  0  0  0  0
   -6.8743   -1.8557    0.7307 H   0  0  0  0  0  0  0  0  0  0  0  0
   -5.7673   -0.6332    1.4005 H   0  0  0  0  0  0  0  0  0  0  0  0
   -6.0305   -0.7278   -0.3574 H   0  0  0  0  0  0  0  0  0  0  0  0
  1  2  1  0  0  0  0
  1 26  1  0  0  0  0
  1 27  1  0  0  0  0
  1 28  1  0  0  0  0
  2  3  1  0  0  0  0
  3  4  2  0  0  0  0
  3  5  1  0  0  0  0
  5 14  1  0  0  0  0
  5  6  2  0  0  0  0
  6  7  1  0  0  0  0
  6 22  1  0  0  0  0
  7  8  1  0  0  0  0
  8 13  1  0  0  0  0
  8  9  2  0  0  0  0
  9 10  1  0  0  0  0
  9 14  1  0  0  0  0
 10 11  1  0  0  0  0
 11 12  1  0  0  0  0
 11 13  2  0  0  0  0
 14 15  1  6  0  0  0
 14 16  1  0  0  0  0
 16 21  2  0  0  0  0
 16 17  1  0  0  0  0
 17 18  2  0  0  0  0
 17 29  1  0  0  0  0
 18 19  1  0  0  0  0
 18 30  1  0  0  0  0
 19 20  2  0  0  0  0
 19 31  1  0  0  0  0
 20 21  1  0  0  0  0
 21 32  1  0  0  0  0
 22 23  2  0  0  0  0
 22 24  1  0  0  0  0
 24 25  1  0  0  0  0
 25 33  1  0  0  0  0
 25 34  1  0  0  0  0
 25 35  1  0  0  0  0
M  END
$$$$
ZINC44929798
 OpenBabel01252620473D

 29 30  0  0  1  0  0  0  0  0999 V2000
   -0.0187    1.5258    0.0104 C   0  0  0  0  0  0  0  0  0  0  0  0
    0.0021   -0.0041    0.0020 C   0  0  2  0  0  0  0  0  0  0  0  0
   -1.0205   -0.3814    0.0098 H   0  0  0  0  0  0  0  0  0  0  0  0
    0.7309   -0.5033    1.2229 C   0  0  0  0  0  0  0  0  0  0  0  0
    0.1851   -1.0396    2.3047 N   0  0  0  0  0  0  0  0  0  0  0  0
    1.1411   -1.3355    3.1177 N   0  0  0  0  0  0  0  0  0  0  0  0
    2.2643   -1.0033    2.5830 N   0  0  0  0  0  0  0  0  0  0  0  0
    2.0414   -0.4957    1.4189 N   0  0  0  0  0  2  0  0  0  0  0  0
    0.6878   -0.4765   -1.2033 N   0  0  0  0  0  0  0  0  0  0  0  0
   -0.1875   -0.8749   -2.5515 S   0  0  0  0  0  0  0  0  0  0  0  0
    0.7512   -1.2650   -3.5445 O   0  0  0  0  0  0  0  0  0  0  0  0
   -1.2362   -1.7295   -2.1169 O   0  0  0  0  0  0  0  0  0  0  0  0
   -0.9505    0.6032   -3.1327 C   0  0  0  0  0  0  0  0  0  0  0  0
   -2.2041    0.9598   -2.6676 C   0  0  0  0  0  0  0  0  0  0  0  0
   -2.8077    2.1150   -3.1185 C   0  0  0  0  0  0  0  0  0  0  0  0
   -2.1501    2.9262   -4.0468 C   0  0  0  0  0  0  0  0  0  0  0  0
   -0.8844    2.5601   -4.5116 C   0  0  0  0  0  0  0  0  0  0  0  0
   -0.2908    1.4047   -4.0479 C   0  0  0  0  0  0  0  0  0  0  0  0
   -2.7894    4.1633   -4.5342 C   0  0  0  0  0  0  0  0  0  0  0  0
   -3.8975    4.4808   -4.1257 O   0  0  0  0  0  0  0  0  0  0  0  0
   -2.2112    4.8712   -5.3467 O   0  0  0  0  0  1  0  0  0  0  0  0
    1.0039    1.9031    0.0027 H   0  0  0  0  0  0  0  0  0  0  0  0
   -0.5459    1.8868   -0.8726 H   0  0  0  0  0  0  0  0  0  0  0  0
   -0.5289    1.8773    0.9072 H   0  0  0  0  0  0  0  0  0  0  0  0
    1.6545   -0.5560   -1.2117 H   0  0  0  0  0  0  0  0  0  0  0  0
   -2.7112    0.3317   -1.9501 H   0  0  0  0  0  0  0  0  0  0  0  0
   -3.7863    2.3917   -2.7552 H   0  0  0  0  0  0  0  0  0  0  0  0
   -0.3703    3.1824   -5.2291 H   0  0  0  0  0  0  0  0  0  0  0  0
    0.6894    1.1226   -4.4030 H   0  0  0  0  0  0  0  0  0  0  0  0
  1  2  1  0  0  0  0
  1 22  1  0  0  0  0
  1 23  1  0  0  0  0
  1 24  1  0  0  0  0
  2  3  1  1  0  0  0
  2  9  1  0  0  0  0
  2  4  1  0  0  0  0
  4  5  2  0  0  0  0
  4  8  1  0  0  0  0
  5  6  1  0  0  0  0
  6  7  2  0  0  0  0
  7  8  1  0  0  0  0
  9 10  1  0  0  0  0
  9 25  1  0  0  0  0
 10 11  2  0  0  0  0
 10 12  2  0  0  0  0
 10 13  1  0  0  0  0
 13 18  2  0  0  0  0
 13 14  1  0  0  0  0
 14 15  2  0  0  0  0
 14 26  1  0  0  0  0
 15 16  1  0  0  0  0
 15 27  1  0  0  0  0
 16 17  2  0  0  0  0
 16 19  1  0  0  0  0
 17 18  1  0  0  0  0
 17 28  1  0  0  0  0
 18 29  1  0  0  0  0
 19 20  2  0  0  0  0
 19 21  1  0  0  0  0
M  END
$$$$
ZINC20462870
 OpenBabel01252620473D

 57 59  0  0  1  0  0  0  0  0999 V2000
   -7.6627    0.5894    6.4977 C   0  0  0  0  0  0  0  0  0  0  0  0
   -7.3722   -0.2352    7.5671 C   0  0  0  0  0  0  0  0  0  0  0  0
   -6.6246   -1.3095    7.4104 N   0  0  0  0  0  0  0  0  0  0  0  0
   -6.1224   -1.6475    6.2383 C   0  0  0  0  0  0  0  0  0  0  0  0
   -6.3687   -0.8815    5.1134 C   0  0  0  0  0  0  0  0  0  0  0  0
   -7.1516    0.2700    5.2360 C   0  0  0  0  0  0  0  0  0  0  0  0
   -7.4369    1.1252    4.0604 C   0  0  0  0  0  0  0  0  0  0  0  0
   -7.8477    0.6261    3.0314 O   0  0  0  0  0  0  0  0  0  0  0  0
   -7.2409    2.4567    4.1321 N   0  0  0  0  0  0  0  0  0  0  0  0
   -6.8241    3.0851    5.3931 C   0  0  0  0  0  0  0  0  0  0  0  0
   -5.5634    3.9167    5.1364 C   0  0  0  0  0  0  0  0  0  0  0  0
   -5.8322    4.9059    4.0000 C   0  0  2  0  0  0  0  0  0  0  0  0
   -6.6774    5.5552    4.2720 H   0  0  0  0  0  0  0  0  0  0  0  0
   -6.1719    4.1364    2.7214 C   0  0  2  0  0  0  0  0  0  0  0  0
   -6.3387    4.8463    1.8979 H   0  0  0  0  0  0  0  0  0  0  0  0
   -7.4395    3.3073    2.9507 C   0  0  0  0  0  0  0  0  0  0  0  0
   -5.0115    3.2064    2.3615 C   0  0  0  0  0  0  0  0  0  0  0  0
   -5.2988    2.5277    1.0208 C   0  0  0  0  0  0  0  0  0  0  0  0
   -4.1847    1.6348    0.6752 N   0  3  1  0  0  0  0  0  0  0  0  0
   -4.5247    0.7908   -0.4774 C   0  0  0  0  0  0  0  0  0  0  0  0
   -3.4037   -0.2229   -0.7174 C   0  0  0  0  0  0  0  0  0  0  0  0
   -2.0931    0.5248   -0.9775 C   0  0  1  0  0  0  0  0  0  0  0  0
   -1.7862    1.4339    0.2158 C   0  0  0  0  0  0  0  0  0  0  0  0
   -2.9548    2.3986    0.4297 C   0  0  0  0  0  0  0  0  0  0  0  0
   -0.9735   -0.4681   -1.1553 C   0  0  0  0  0  0  0  0  0  0  0  0
   -1.1997   -1.6529   -1.0839 O   0  0  0  0  0  0  0  0  0  0  0  0
    0.2741   -0.0365   -1.3983 O   0  0  0  0  0  1  0  0  0  0  0  0
   -4.5863    5.7619    3.7640 C   0  0  0  0  0  0  0  0  0  0  0  0
   -4.3228    6.6117    4.9803 C   0  0  0  0  0  0  0  0  0  0  0  0
   -5.0564    6.5400    5.9377 O   0  0  0  0  0  0  0  0  0  0  0  0
   -3.2733    7.4483    5.0001 O   0  0  0  0  0  1  0  0  0  0  0  0
   -5.1462   -3.0768    6.1045 Cl  0  0  0  0  0  0  0  0  0  0  0  0
   -8.2760    1.4679    6.6340 H   0  0  0  0  0  0  0  0  0  0  0  0
   -7.7628    0.0037    8.5453 H   0  0  0  0  0  0  0  0  0  0  0  0
   -5.9588   -1.1663    4.1556 H   0  0  0  0  0  0  0  0  0  0  0  0
   -7.6307    3.7351    5.7630 H   0  0  0  0  0  0  0  0  0  0  0  0
   -6.6109    2.3049    6.1387 H   0  0  0  0  0  0  0  0  0  0  0  0
   -5.2961    4.4688    6.0495 H   0  0  0  0  0  0  0  0  0  0  0  0
   -4.7350    3.2497    4.8556 H   0  0  0  0  0  0  0  0  0  0  0  0
   -7.6355    2.6748    2.0723 H   0  0  0  0  0  0  0  0  0  0  0  0
   -8.2967    3.9756    3.1199 H   0  0  0  0  0  0  0  0  0  0  0  0
   -4.0831    3.7913    2.2849 H   0  0  0  0  0  0  0  0  0  0  0  0
   -4.8991    2.4409    3.1434 H   0  0  0  0  0  0  0  0  0  0  0  0
   -6.2272    1.9428    1.0975 H   0  0  0  0  0  0  0  0  0  0  0  0
   -5.4112    3.2932    0.2389 H   0  0  0  0  0  0  0  0  0  0  0  0
   -5.4648    0.2563   -0.2758 H   0  0  0  0  0  0  0  0  0  0  0  0
   -4.6457    1.4213   -1.3706 H   0  0  0  0  0  0  0  0  0  0  0  0
   -3.2925   -0.8635    0.1699 H   0  0  0  0  0  0  0  0  0  0  0  0
   -3.6524   -0.8449   -1.5899 H   0  0  0  0  0  0  0  0  0  0  0  0
   -2.1766    1.1238   -1.8963 H   0  0  0  0  0  0  0  0  0  0  0  0
   -1.6454    0.8201    1.1177 H   0  0  0  0  0  0  0  0  0  0  0  0
   -0.8684    2.0058    0.0145 H   0  0  0  0  0  0  0  0  0  0  0  0
   -3.0833    3.0220   -0.4674 H   0  0  0  0  0  0  0  0  0  0  0  0
   -2.7437    3.0423    1.2964 H   0  0  0  0  0  0  0  0  0  0  0  0
   -3.7215    5.1076    3.5795 H   0  0  0  0  0  0  0  0  0  0  0  0
   -4.7476    6.4113    2.8909 H   0  0  0  0  0  0  0  0  0  0  0  0
   -4.0018    0.9719    1.5337 H   0  0  0  0  0  0  0  0  0  0  0  0
  1  6  2  0  0  0  0
  1  2  1  0  0  0  0
  1 33  1  0  0  0  0
  2  3  2  0  0  0  0
  2 34  1  0  0  0  0
  3  4  1  0  0  0  0
  4  5  2  0  0  0  0
  4 32  1  0  0  0  0
  5  6  1  0  0  0  0
  5 35  1  0  0  0  0
  6  7  1  0  0  0  0
  7  8  2  0  0  0  0
  7  9  1  0  0  0  0
  9 16  1  0  0  0  0
  9 10  1  0  0  0  0
 10 11  1  0  0  0  0
 10 36  1  0  0  0  0
 10 37  1  0  0  0  0
 11 12  1  0  0  0  0
 11 38  1  0  0  0  0
 11 39  1  0  0  0  0
 12 13  1  1  0  0  0
 12 14  1  0  0  0  0
 12 28  1  0  0  0  0
 14 15  1  6  0  0  0
 14 16  1  0  0  0  0
 14 17  1  0  0  0  0
 16 40  1  0  0  0  0
 16 41  1  0  0  0  0
 17 18  1  0  0  0  0
 17 42  1  0  0  0  0
 17 43  1  0  0  0  0
 18 19  1  0  0  0  0
 18 44  1  0  0  0  0
 18 45  1  0  0  0  0
 19 24  1  0  0  0  0
 19 20  1  0  0  0  0
 19 57  1  1  0  0  0
 20 21  1  0  0  0  0
 20 46  1  0  0  0  0
 20 47  1  0  0  0  0
 21 22  1  0  0  0  0
 21 48  1  0  0  0  0
 21 49  1  0  0  0  0
 22 23  1  0  0  0  0
 22 25  1  0  0  0  0
 22 50  1  6  0  0  0
 23 24  1  0  0  0  0
 23 51  1  0  0  0  0
 23 52  1  0  0  0  0
 24 53  1  0  0  0  0
 24 54  1  0  0  0  0
 25 26  2  0  0  0  0
 25 27  1  0  0  0  0
 28 29  1  0  0  0  0
 28 55  1  0  0  0  0
 28 56  1  0  0  0  0
 29 30  2  0  0  0  0
 29 31  1  0  0  0  0
M  CHG  1  19   1
M  END
$$$$
ZINC36354062
 OpenBabel01252620473D

 52 55  0  0  1  0  0  0  0  0999 V2000
   -0.0167    1.3818    0.0096 C   0  0  0  0  0  0  0  0  0  0  0  0
    1.1915    2.0609    0.0018 C   0  0  0  0  0  0  0  0  0  0  0  0
    2.3197    1.3705   -0.0127 N   0  0  0  0  0  0  0  0  0  0  0  0
    2.3029    0.0457   -0.0197 C   0  0  0  0  0  0  0  0  0  0  0  0
    1.1654   -0.6335   -0.0129 N   0  0  0  0  0  0  0  0  0  0  0  0
    0.0021   -0.0041    0.0020 C   0  0  0  0  0  0  0  0  0  0  0  0
    3.5022   -0.6451   -0.0348 N   0  0  0  0  0  0  0  0  0  0  0  0
    4.7650    0.1208   -0.0367 C   0  0  0  0  0  0  0  0  0  0  0  0
    5.8034   -0.5214    0.9010 C   0  0  0  0  0  0  0  0  0  0  0  0
    5.1151   -1.0057    2.1580 C   0  0  0  0  0  0  0  0  0  0  0  0
    4.7473   -2.4105    1.9957 N   0  3  2  0  0  0  0  0  0  0  0  0
    3.4844   -2.6307    1.4023 C   0  0  0  0  0  0  0  0  0  0  0  0
    3.4738   -2.0932   -0.0424 C   0  0  0  0  0  0  0  0  0  0  0  0
    4.7547   -3.0474    3.3195 C   0  0  1  0  0  0  0  0  0  0  0  0
    4.0360   -2.5462    3.9678 H   0  0  0  0  0  0  0  0  0  0  0  0
    4.3780   -4.4999    3.1802 C   0  0  0  0  0  0  0  0  0  0  0  0
    4.5315   -5.2631    2.0870 C   0  0  0  0  0  0  0  0  0  0  0  0
    4.0765   -6.5303    2.3349 N   0  0  0  0  0  0  0  0  0  0  0  0
    3.6073   -6.6147    3.6266 C   0  0  0  0  0  0  0  0  0  0  0  0
    3.7804   -5.3484    4.2147 C   0  0  0  0  0  0  0  0  0  0  0  0
    3.3937   -5.1358    5.5391 C   0  0  0  0  0  0  0  0  0  0  0  0
    2.8506   -6.1611    6.2608 C   0  0  0  0  0  0  0  0  0  0  0  0
    2.6803   -7.4153    5.6866 C   0  0  0  0  0  0  0  0  0  0  0  0
    3.0487   -7.6443    4.3766 C   0  0  0  0  0  0  0  0  0  0  0  0
    2.1424   -8.4176    6.4155 F   0  0  0  0  0  0  0  0  0  0  0  0
    4.0865   -7.6321    1.3694 C   0  0  0  0  0  0  0  0  0  0  0  0
    2.7489   -7.7074    0.6793 C   0  0  0  0  0  0  0  0  0  0  0  0
    1.8688   -6.9144    0.9673 O   0  0  0  0  0  0  0  0  0  0  0  0
    2.5468   -8.5615   -0.1670 O   0  0  0  0  0  1  0  0  0  0  0  0
    6.1327   -2.9412    3.9203 C   0  0  0  0  0  0  0  0  0  0  0  0
    6.2670   -2.8813    5.1306 O   0  0  0  0  0  0  0  0  0  0  0  0
    7.1131   -2.9152    3.1961 O   0  0  0  0  0  1  0  0  0  0  0  0
   -0.9525    1.9208    0.0259 H   0  0  0  0  0  0  0  0  0  0  0  0
    1.2116    3.1407    0.0070 H   0  0  0  0  0  0  0  0  0  0  0  0
   -0.9219   -0.5632    0.0082 H   0  0  0  0  0  0  0  0  0  0  0  0
    5.1659    0.1471   -1.0499 H   0  0  0  0  0  0  0  0  0  0  0  0
    4.5657    1.1399    0.2947 H   0  0  0  0  0  0  0  0  0  0  0  0
    6.2755   -1.3649    0.3972 H   0  0  0  0  0  0  0  0  0  0  0  0
    6.5617    0.2163    1.1631 H   0  0  0  0  0  0  0  0  0  0  0  0
    5.7917   -0.9023    3.0063 H   0  0  0  0  0  0  0  0  0  0  0  0
    4.2176   -0.4124    2.3330 H   0  0  0  0  0  0  0  0  0  0  0  0
    3.2716   -3.6997    1.3926 H   0  0  0  0  0  0  0  0  0  0  0  0
    2.7181   -2.1176    1.9832 H   0  0  0  0  0  0  0  0  0  0  0  0
    2.5691   -2.4352   -0.5449 H   0  0  0  0  0  0  0  0  0  0  0  0
    4.3472   -2.4699   -0.5746 H   0  0  0  0  0  0  0  0  0  0  0  0
    4.9515   -4.9273    1.1504 H   0  0  0  0  0  0  0  0  0  0  0  0
    3.5237   -4.1640    5.9920 H   0  0  0  0  0  0  0  0  0  0  0  0
    2.5517   -5.9957    7.2853 H   0  0  0  0  0  0  0  0  0  0  0  0
    2.9137   -8.6222    3.9387 H   0  0  0  0  0  0  0  0  0  0  0  0
    4.8679   -7.4595    0.6293 H   0  0  0  0  0  0  0  0  0  0  0  0
    4.2801   -8.5698    1.8902 H   0  0  0  0  0  0  0  0  0  0  0  0
    5.4491   -2.8597    1.4267 H   0  0  0  0  0  0  0  0  0  0  0  0
  1  6  2  0  0  0  0
  1  2  1  0  0  0  0
  1 33  1  0  0  0  0
  2  3  2  0  0  0  0
  2 34  1  0  0  0  0
  3  4  1  0  0  0  0
  4  5  2  0  0  0  0
  4  7  1  0  0  0  0
  5  6  1  0  0  0  0
  6 35  1  0  0  0  0
  7 13  1  0  0  0  0
  7  8  1  0  0  0  0
  8  9  1  0  0  0  0
  8 36  1  0  0  0  0
  8 37  1  0  0  0  0
  9 10  1  0  0  0  0
  9 38  1  0  0  0  0
  9 39  1  0  0  0  0
 10 11  1  0  0  0  0
 10 40  1  0  0  0  0
 10 41  1  0  0  0  0
 11 12  1  0  0  0  0
 11 14  1  0  0  0  0
 11 52  1  6  0  0  0
 12 13  1  0  0  0  0
 12 42  1  0  0  0  0
 12 43  1  0  0  0  0
 13 44  1  0  0  0  0
 13 45  1  0  0  0  0
 14 15  1  1  0  0  0
 14 16  1  0  0  0  0
 14 30  1  0  0  0  0
 16 20  1  0  0  0  0
 16 17  2  0  0  0  0
 17 18  1  0  0  0  0
 17 46  1  0  0  0  0
 18 19  1  0  0  0  0
 18 26  1  0  0  0  0
 19 24  2  0  0  0  0
 19 20  1  0  0  0  0
 20 21  2  0  0  0  0
 21 22  1  0  0  0  0
 21 47  1  0  0  0  0
 22 23  2  0  0  0  0
 22 48  1  0  0  0  0
 23 24  1  0  0  0  0
 23 25  1  0  0  0  0
 24 49  1  0  0  0  0
 26 27  1  0  0  0  0
 26 50  1  0  0  0  0
 26 51  1  0  0  0  0
 27 28  2  0  0  0  0
 27 29  1  0  0  0  0
 30 31  2  0  0  0  0
 30 32  1  0  0  0  0
M  CHG  1  11   1
M  END
$$$$
ZINC23222905
 OpenBabel01252620473D

 51 52  0  0  0  0  0  0  0  0999 V2000
    6.7121    3.3812   -1.4865 C   0  0  0  0  0  0  0  0  0  0  0  0
    6.4168    3.7791   -0.0389 C   0  0  0  0  0  0  0  0  0  0  0  0
    5.5292    4.9445   -0.0242 N   0  0  0  0  0  0  0  0  0  0  0  0
    6.0947    6.2960   -0.0223 C   0  0  0  0  0  0  0  0  0  0  0  0
    6.3053    6.7587    1.4207 C   0  0  0  0  0  0  0  0  0  0  0  0
    4.1924    4.7733   -0.0123 C   0  0  0  0  0  0  0  0  0  0  0  0
    3.4576    5.7381   -0.0001 O   0  0  0  0  0  0  0  0  0  0  0  0
    3.6108    3.3831   -0.0142 C   0  0  0  0  0  0  0  0  0  0  0  0
    1.7997    3.4854    0.0036 S   0  0  0  0  0  0  0  0  0  0  0  0
    1.2777    1.8025   -0.0005 C   0  0  0  0  0  0  0  0  0  0  0  0
    2.0623    0.7524   -0.0136 N   0  0  0  0  0  0  0  0  0  0  0  0
    1.2542   -0.3921   -0.0120 N   0  0  0  0  0  0  0  0  0  0  0  0
    0.0021   -0.0041    0.0020 C   0  0  0  0  0  0  0  0  0  0  0  0
   -0.0165    1.3627    0.0095 N   0  0  0  0  0  0  0  0  0  0  0  0
   -1.1323    2.1506    0.0193 N   0  0  0  0  0  0  0  0  0  0  0  0
   -1.4091   -1.0591    0.0107 S   0  0  0  0  0  0  0  0  0  0  0  0
   -0.7068   -2.7315   -0.0054 C   0  0  0  0  0  0  0  0  0  0  0  0
   -1.8223   -3.7448    0.0005 C   0  0  0  0  0  0  0  0  0  0  0  0
   -2.9773   -3.3752    0.0142 O   0  0  0  0  0  0  0  0  0  0  0  0
   -1.5363   -5.0619   -0.0095 N   0  0  0  0  0  0  0  0  0  0  0  0
   -0.1412   -5.5084   -0.0260 C   0  0  0  0  0  0  0  0  0  0  0  0
   -2.6207   -6.0469   -0.0037 C   0  0  0  0  0  0  0  0  0  0  0  0
   -3.0070   -6.3771   -1.4225 C   0  0  0  0  0  0  0  0  0  0  0  0
   -2.5178   -7.3433   -2.2370 C   0  0  0  0  0  0  0  0  0  0  0  0
   -3.0286   -7.4642   -3.5163 C   0  0  0  0  0  0  0  0  0  0  0  0
   -4.0044   -6.6115   -3.9174 C   0  0  0  0  0  0  0  0  0  0  0  0
   -4.2331   -5.6018   -2.4629 S   0  0  0  0  0  0  0  0  0  0  0  0
   -4.8236   -6.5286   -5.4457 Cl  0  0  0  0  0  0  0  0  0  0  0  0
    7.3786    2.5062   -1.4976 H   0  0  0  0  0  0  0  0  0  0  0  0
    7.1995    4.2199   -2.0051 H   0  0  0  0  0  0  0  0  0  0  0  0
    5.7705    3.1315   -1.9975 H   0  0  0  0  0  0  0  0  0  0  0  0
    5.9294    2.9404    0.4797 H   0  0  0  0  0  0  0  0  0  0  0  0
    7.3584    4.0288    0.4721 H   0  0  0  0  0  0  0  0  0  0  0  0
    7.0598    6.2904   -0.5501 H   0  0  0  0  0  0  0  0  0  0  0  0
    5.4028    6.9837   -0.5306 H   0  0  0  0  0  0  0  0  0  0  0  0
    6.7299    7.7735    1.4221 H   0  0  0  0  0  0  0  0  0  0  0  0
    6.9972    6.0710    1.9290 H   0  0  0  0  0  0  0  0  0  0  0  0
    5.3402    6.7643    1.9485 H   0  0  0  0  0  0  0  0  0  0  0  0
    3.9391    2.8496   -0.9184 H   0  0  0  0  0  0  0  0  0  0  0  0
    3.9562    2.8399    0.8778 H   0  0  0  0  0  0  0  0  0  0  0  0
   -2.1310    1.6897    0.0269 H   0  0  0  0  0  0  0  0  0  0  0  0
   -1.0321    3.2460    0.0196 H   0  0  0  0  0  0  0  0  0  0  0  0
   -0.0959   -2.8639   -0.9105 H   0  0  0  0  0  0  0  0  0  0  0  0
   -0.0776   -2.8736    0.8856 H   0  0  0  0  0  0  0  0  0  0  0  0
   -0.1082   -6.6079   -0.0323 H   0  0  0  0  0  0  0  0  0  0  0  0
    0.3751   -5.1311    0.8690 H   0  0  0  0  0  0  0  0  0  0  0  0
    0.3570   -5.1214   -0.9272 H   0  0  0  0  0  0  0  0  0  0  0  0
   -2.2830   -6.9610    0.5066 H   0  0  0  0  0  0  0  0  0  0  0  0
   -3.4907   -5.6314    0.5260 H   0  0  0  0  0  0  0  0  0  0  0  0
   -1.7402   -8.0088   -1.8923 H   0  0  0  0  0  0  0  0  0  0  0  0
   -2.6561   -8.2254   -4.1858 H   0  0  0  0  0  0  0  0  0  0  0  0
  1  2  1  0  0  0  0
  1 29  1  0  0  0  0
  1 30  1  0  0  0  0
  1 31  1  0  0  0  0
  2  3  1  0  0  0  0
  2 32  1  0  0  0  0
  2 33  1  0  0  0  0
  3  4  1  0  0  0  0
  3  6  1  0  0  0  0
  4  5  1  0  0  0  0
  4 34  1  0  0  0  0
  4 35  1  0  0  0  0
  5 36  1  0  0  0  0
  5 37  1  0  0  0  0
  5 38  1  0  0  0  0
  6  7  2  0  0  0  0
  6  8  1  0  0  0  0
  8  9  1  0  0  0  0
  8 39  1  0  0  0  0
  8 40  1  0  0  0  0
  9 10  1  0  0  0  0
 10 14  1  0  0  0  0
 10 11  2  0  0  0  0
 11 12  1  0  0  0  0
 12 13  2  0  0  0  0
 13 14  1  0  0  0  0
 13 16  1  0  0  0  0
 14 15  1  0  0  0  0
 15 41  1  0  0  0  0
 15 42  1  0  0  0  0
 16 17  1  0  0  0  0
 17 18  1  0  0  0  0
 17 43  1  0  0  0  0
 17 44  1  0  0  0  0
 18 19  2  0  0  0  0
 18 20  1  0  0  0  0
 20 21  1  0  0  0  0
 20 22  1  0  0  0  0
 21 45  1  0  0  0  0
 21 46  1  0  0  0  0
 21 47  1  0  0  0  0
 22 23  1  0  0  0  0
 22 48  1  0  0  0  0
 22 49  1  0  0  0  0
 23 27  1  0  0  0  0
 23 24  2  0  0  0  0
 24 25  1  0  0  0  0
 24 50  1  0  0  0  0
 25 26  2  0  0  0  0
 25 51  1  0  0  0  0
 26 27  1  0  0  0  0
 26 28  1  0  0  0  0
M  END
$$$$
ZINC13318948
 OpenBabel01252620473D

 42 44  0  0  0  0  0  0  0  0999 V2000
   -0.0184    1.5028    0.0103 C   0  0  0  0  0  0  0  0  0  0  0  0
    0.0021   -0.0041    0.0020 C   0  0  0  0  0  0  0  0  0  0  0  0
    0.0054   -0.6990   -1.2069 C   0  0  0  0  0  0  0  0  0  0  0  0
   -0.0088   -0.1650   -2.5875 C   0  0  0  0  0  0  0  0  0  0  0  0
   -0.0261    1.0358   -2.7913 O   0  0  0  0  0  0  0  0  0  0  0  0
   -0.0017   -1.0382   -3.6132 N   0  0  0  0  0  0  0  0  0  0  0  0
   -0.0108   -0.7030   -4.5234 H   0  0  0  0  0  0  0  0  0  0  0  0
    0.0185   -2.3842   -3.3964 C   0  0  0  0  0  0  0  0  0  0  0  0
    0.0311   -2.8884   -2.1789 N   0  0  0  0  0  0  0  0  0  0  0  0
    0.0256   -2.1120   -1.1079 C   0  0  0  0  0  0  0  0  0  0  0  0
    0.0383   -2.4027    0.6434 S   0  0  0  0  0  0  0  0  0  0  0  0
    0.0233   -0.7033    1.1884 C   0  0  0  0  0  0  0  0  0  0  0  0
    0.0291   -0.1993    2.5112 C   0  0  0  0  0  0  0  0  0  0  0  0
    0.0140    1.0104    2.7060 O   0  0  0  0  0  0  0  0  0  0  0  0
    0.0491   -0.9728    3.4614 O   0  0  0  0  0  1  0  0  0  0  0  0
    0.0275   -3.4768   -4.7787 S   0  0  0  0  0  0  0  0  0  0  0  0
    0.0546   -5.1295   -4.0316 C   0  0  0  0  0  0  0  0  0  0  0  0
    0.0643   -6.1725   -5.1193 C   0  0  0  0  0  0  0  0  0  0  0  0
    0.0539   -5.8341   -6.2840 O   0  0  0  0  0  0  0  0  0  0  0  0
    0.0845   -7.4812   -4.7980 N   0  0  0  0  0  0  0  0  0  0  0  0
    0.0939   -8.4951   -5.8554 C   0  0  0  0  0  0  0  0  0  0  0  0
    0.1164   -9.8681   -5.2347 C   0  0  0  0  0  0  0  0  0  0  0  0
    1.3269  -10.4760   -4.9517 C   0  0  0  0  0  0  0  0  0  0  0  0
    1.3553  -11.7326   -4.3841 C   0  0  0  0  0  0  0  0  0  0  0  0
    0.1579  -12.3918   -4.0944 C   0  0  0  0  0  0  0  0  0  0  0  0
   -1.0605  -11.7716   -4.3825 C   0  0  0  0  0  0  0  0  0  0  0  0
   -1.0735  -10.5126   -4.9454 C   0  0  0  0  0  0  0  0  0  0  0  0
    0.1800  -13.7364   -3.4876 C   0  0  0  0  0  0  0  0  0  0  0  0
    1.2481  -14.2767   -3.2370 O   0  0  0  0  0  0  0  0  0  0  0  0
   -0.8698  -14.3107   -3.2353 O   0  0  0  0  0  1  0  0  0  0  0  0
    1.0042    1.8801    0.0026 H   0  0  0  0  0  0  0  0  0  0  0  0
   -0.5455    1.8639   -0.8728 H   0  0  0  0  0  0  0  0  0  0  0  0
   -0.5286    1.8543    0.9071 H   0  0  0  0  0  0  0  0  0  0  0  0
    0.9492   -5.2362   -3.4180 H   0  0  0  0  0  0  0  0  0  0  0  0
   -0.8306   -5.2616   -3.4094 H   0  0  0  0  0  0  0  0  0  0  0  0
    0.0928   -7.7518   -3.8665 H   0  0  0  0  0  0  0  0  0  0  0  0
   -0.8007   -8.3883   -6.4690 H   0  0  0  0  0  0  0  0  0  0  0  0
    0.9791   -8.3630   -6.4776 H   0  0  0  0  0  0  0  0  0  0  0  0
    2.2517   -9.9653   -5.1762 H   0  0  0  0  0  0  0  0  0  0  0  0
    2.3008  -12.2062   -4.1644 H   0  0  0  0  0  0  0  0  0  0  0  0
   -1.9899  -12.2753   -4.1612 H   0  0  0  0  0  0  0  0  0  0  0  0
   -2.0146  -10.0302   -5.1646 H   0  0  0  0  0  0  0  0  0  0  0  0
  1  2  1  0  0  0  0
  1 31  1  0  0  0  0
  1 32  1  0  0  0  0
  1 33  1  0  0  0  0
  2 12  2  0  0  0  0
  2  3  1  0  0  0  0
  3 10  2  0  0  0  0
  3  4  1  0  0  0  0
  4  5  2  0  0  0  0
  4  6  1  0  0  0  0
  6  7  1  0  0  0  0
  6  8  1  0  0  0  0
  8  9  2  0  0  0  0
  8 16  1  0  0  0  0
  9 10  1  0  0  0  0
 10 11  1  0  0  0  0
 11 12  1  0  0  0  0
 12 13  1  0  0  0  0
 13 14  2  0  0  0  0
 13 15  1  0  0  0  0
 16 17  1  0  0  0  0
 17 18  1  0  0  0  0
 17 34  1  0  0  0  0
 17 35  1  0  0  0  0
 18 19  2  0  0  0  0
 18 20  1  0  0  0  0
 20 21  1  0  0  0  0
 20 36  1  0  0  0  0
 21 22  1  0  0  0  0
 21 37  1  0  0  0  0
 21 38  1  0  0  0  0
 22 27  2  0  0  0  0
 22 23  1  0  0  0  0
 23 24  2  0  0  0  0
 23 39  1  0  0  0  0
 24 25  1  0  0  0  0
 24 40  1  0  0  0  0
 25 26  2  0  0  0  0
 25 28  1  0  0  0  0
 26 27  1  0  0  0  0
 26 41  1  0  0  0  0
 27 42  1  0  0  0  0
 28 29  2  0  0  0  0
 28 30  1  0  0  0  0
M  END
$$$$
ZINC09751687
 OpenBabel01252620473D

 59 61  0  0  0  0  0  0  0  0999 V2000
    4.3156    9.5936    3.5047 C   0  0  0  0  0  0  0  0  0  0  0  0
    4.4982   10.5170    2.2985 C   0  0  0  0  0  0  0  0  0  0  0  0
    4.5987   11.9669    2.7767 C   0  0  0  0  0  0  0  0  0  0  0  0
    5.7247   10.1520    1.5852 N   0  0  0  0  0  0  0  0  0  0  0  0
    7.0168   10.2089    2.2733 C   0  0  0  0  0  0  0  0  0  0  0  0
    5.6505    9.6749    0.0011 S   0  0  0  0  0  0  0  0  0  0  0  0
    6.9307    9.9300   -0.5602 O   0  0  0  0  0  0  0  0  0  0  0  0
    4.4586   10.2324   -0.5355 O   0  0  0  0  0  0  0  0  0  0  0  0
    5.4364    7.9260   -0.0068 C   0  0  0  0  0  0  0  0  0  0  0  0
    6.5430    7.0951   -0.0214 C   0  0  0  0  0  0  0  0  0  0  0  0
    6.3840    5.7208   -0.0268 C   0  0  0  0  0  0  0  0  0  0  0  0
    5.1193    5.1695   -0.0132 C   0  0  0  0  0  0  0  0  0  0  0  0
    3.9986    6.0019   -0.0039 C   0  0  0  0  0  0  0  0  0  0  0  0
    4.1664    7.3882    0.0020 C   0  0  0  0  0  0  0  0  0  0  0  0
    2.6413    5.4187    0.0059 C   0  0  0  0  0  0  0  0  0  0  0  0
    1.6681    6.1455    0.0191 O   0  0  0  0  0  0  0  0  0  0  0  0
    2.4829    4.0810    0.0003 O   0  0  0  0  0  0  0  0  0  0  0  0
    1.1207    3.5784    0.0106 C   0  0  0  0  0  0  0  0  0  0  0  0
    1.1412    2.0716    0.0023 C   0  0  0  0  0  0  0  0  0  0  0  0
    2.1996    1.4795   -0.0110 O   0  0  0  0  0  0  0  0  0  0  0  0
   -0.0167    1.3819    0.0096 N   0  0  0  0  0  0  0  0  0  0  0  0
    0.0021   -0.0041    0.0020 C   0  0  0  0  0  0  0  0  0  0  0  0
   -1.0713   -0.8798    0.0132 C   0  0  0  0  0  0  0  0  0  0  0  0
   -0.7759   -2.3125   -0.0013 C   0  0  0  0  0  0  0  0  0  0  0  0
    0.5319   -2.6258   -0.0161 C   0  0  0  0  0  0  0  0  0  0  0  0
    1.3723   -1.0611   -0.0162 S   0  0  0  0  0  0  0  0  0  0  0  0
    0.7554   -4.1139   -0.0285 C   0  0  0  0  0  0  0  0  0  0  0  0
   -0.6048   -4.7081   -0.4562 C   0  0  0  0  0  0  0  0  0  0  0  0
   -1.5852   -3.6101    0.0021 C   0  0  0  0  0  0  0  0  0  0  0  0
   -2.4509   -0.3894    0.0349 C   0  0  0  0  0  0  0  0  0  0  0  0
   -3.0390   -0.1814   -1.0094 O   0  0  0  0  0  0  0  0  0  0  0  0
   -3.0697   -0.1683    1.2128 O   0  0  0  0  0  0  0  0  0  0  0  0
   -4.4369    0.3176    1.1583 C   0  0  0  0  0  0  0  0  0  0  0  0
    5.1697    9.6970    4.1740 H   0  0  0  0  0  0  0  0  0  0  0  0
    3.4031    9.8653    4.0353 H   0  0  0  0  0  0  0  0  0  0  0  0
    4.2440    8.5607    3.1639 H   0  0  0  0  0  0  0  0  0  0  0  0
    3.6442   10.4136    1.6291 H   0  0  0  0  0  0  0  0  0  0  0  0
    5.4528   12.0703    3.4461 H   0  0  0  0  0  0  0  0  0  0  0  0
    4.7288   12.6247    1.9174 H   0  0  0  0  0  0  0  0  0  0  0  0
    3.6862   12.2385    3.3074 H   0  0  0  0  0  0  0  0  0  0  0  0
    7.4536   11.1992    2.1446 H   0  0  0  0  0  0  0  0  0  0  0  0
    6.8718   10.0110    3.3353 H   0  0  0  0  0  0  0  0  0  0  0  0
    7.6861    9.4589    1.8520 H   0  0  0  0  0  0  0  0  0  0  0  0
    7.5352    7.5215   -0.0282 H   0  0  0  0  0  0  0  0  0  0  0  0
    7.2518    5.0781   -0.0378 H   0  0  0  0  0  0  0  0  0  0  0  0
    4.9966    4.0965   -0.0133 H   0  0  0  0  0  0  0  0  0  0  0  0
    3.3036    8.0378    0.0129 H   0  0  0  0  0  0  0  0  0  0  0  0
    0.5936    3.9395   -0.8725 H   0  0  0  0  0  0  0  0  0  0  0  0
    0.6106    3.9299    0.9074 H   0  0  0  0  0  0  0  0  0  0  0  0
   -0.8633    1.8554    0.0162 H   0  0  0  0  0  0  0  0  0  0  0  0
    1.5287   -4.3762   -0.7504 H   0  0  0  0  0  0  0  0  0  0  0  0
    1.0279   -4.4657    0.9666 H   0  0  0  0  0  0  0  0  0  0  0  0
   -0.6486   -4.8440   -1.5368 H   0  0  0  0  0  0  0  0  0  0  0  0
   -0.8006   -5.6469    0.0618 H   0  0  0  0  0  0  0  0  0  0  0  0
   -2.4203   -3.5356   -0.6944 H   0  0  0  0  0  0  0  0  0  0  0  0
   -1.9503   -3.8258    1.0062 H   0  0  0  0  0  0  0  0  0  0  0  0
   -4.8151    0.4531    2.1716 H   0  0  0  0  0  0  0  0  0  0  0  0
   -4.4629    1.2709    0.6303 H   0  0  0  0  0  0  0  0  0  0  0  0
   -5.0591   -0.4063    0.6320 H   0  0  0  0  0  0  0  0  0  0  0  0
  1  2  1  0  0  0  0
  1 34  1  0  0  0  0
  1 35  1  0  0  0  0
  1 36  1  0  0  0  0
  2  3  1  0  0  0  0
  2  4  1  0  0  0  0
  2 37  1  0  0  0  0
  3 38  1  0  0  0  0
  3 39  1  0  0  0  0
  3 40  1  0  0  0  0
  4  5  1  0  0  0  0
  4  6  1  0  0  0  0
  5 41  1  0  0  0  0
  5 42  1  0  0  0  0
  5 43  1  0  0  0  0
  6  7  2  0  0  0  0
  6  8  2  0  0  0  0
  6  9  1  0  0  0  0
  9 14  2  0  0  0  0
  9 10  1  0  0  0  0
 10 11  2  0  0  0  0
 10 44  1  0  0  0  0
 11 12  1  0  0  0  0
 11 45  1  0  0  0  0
 12 13  2  0  0  0  0
 12 46  1  0  0  0  0
 13 14  1  0  0  0  0
 13 15  1  0  0  0  0
 14 47  1  0  0  0  0
 15 16  2  0  0  0  0
 15 17  1  0  0  0  0
 17 18  1  0  0  0  0
 18 19  1  0  0  0  0
 18 48  1  0  0  0  0
 18 49  1  0  0  0  0
 19 20  2  0  0  0  0
 19 21  1  0  0  0  0
 21 22  1  0  0  0  0
 21 50  1  0  0  0  0
 22 26  1  0  0  0  0
 22 23  2  0  0  0  0
 23 24  1  0  0  0  0
 23 30  1  0  0  0  0
 24 29  1  0  0  0  0
 24 25  2  0  0  0  0
 25 26  1  0  0  0  0
 25 27  1  0  0  0  0
 27 28  1  0  0  0  0
 27 51  1  0  0  0  0
 27 52  1  0  0  0  0
 28 29  1  0  0  0  0
 28 53  1  0  0  0  0
 28 54  1  0  0  0  0
 29 55  1  0  0  0  0
 29 56  1  0  0  0  0
 30 31  2  0  0  0  0
 30 32  1  0  0  0  0
 32 33  1  0  0  0  0
 33 57  1  0  0  0  0
 33 58  1  0  0  0  0
 33 59  1  0  0  0  0
M  END
$$$$
ZINC45571730
 OpenBabel01252620473D

 27 28  0  0  0  0  0  0  0  0999 V2000
   -0.0184    1.5028    0.0103 C   0  0  0  0  0  0  0  0  0  0  0  0
    0.0021   -0.0041    0.0020 C   0  0  0  0  0  0  0  0  0  0  0  0
    0.0060   -0.6942   -1.1864 C   0  0  0  0  0  0  0  0  0  0  0  0
    0.0258   -2.0767   -1.0800 C   0  0  0  0  0  0  0  0  0  0  0  0
    0.0375   -2.3077    0.6877 S   0  0  0  0  0  0  0  0  0  0  0  0
    0.0226   -0.6976    1.1670 C   0  0  0  0  0  0  0  0  0  0  0  0
    0.0284   -0.1495    2.5708 C   0  0  0  0  0  0  0  0  0  0  0  0
    0.0343   -3.0850   -2.1434 C   0  0  0  0  0  0  0  0  0  0  0  0
    0.0234   -2.7390   -3.3102 O   0  0  0  0  0  0  0  0  0  0  0  0
    0.0541   -4.3955   -1.8293 N   0  0  0  0  0  0  0  0  0  0  0  0
    0.0623   -5.3573   -2.8436 C   0  0  0  0  0  0  0  0  0  0  0  0
    0.0816   -6.6810   -2.6606 N   0  0  0  0  0  0  0  0  0  0  0  0
    0.0841   -7.2882   -3.8197 C   0  0  0  0  0  0  0  0  0  0  0  0
    0.0661   -6.3525   -4.7839 N   0  0  0  0  0  2  0  0  0  0  0  0
    0.0465   -5.1090   -4.1316 N   0  0  0  0  0  0  0  0  0  0  0  0
    0.1042   -8.7795   -4.0359 C   0  0  0  0  0  0  0  0  0  0  0  0
   -1.1660   -9.2102   -4.4338 F   0  0  0  0  0  0  0  0  0  0  0  0
    1.0361   -9.0940   -5.0308 F   0  0  0  0  0  0  0  0  0  0  0  0
    0.4610   -9.4188   -2.8437 F   0  0  0  0  0  0  0  0  0  0  0  0
    1.0042    1.8801    0.0026 H   0  0  0  0  0  0  0  0  0  0  0  0
   -0.5455    1.8639   -0.8728 H   0  0  0  0  0  0  0  0  0  0  0  0
   -0.5286    1.8543    0.9071 H   0  0  0  0  0  0  0  0  0  0  0  0
   -0.0060   -0.1918   -2.1424 H   0  0  0  0  0  0  0  0  0  0  0  0
   -0.9977   -0.0314    2.9190 H   0  0  0  0  0  0  0  0  0  0  0  0
    0.5579   -0.8393    3.2280 H   0  0  0  0  0  0  0  0  0  0  0  0
    0.5292    0.8186    2.5808 H   0  0  0  0  0  0  0  0  0  0  0  0
    0.0628   -4.6713   -0.8994 H   0  0  0  0  0  0  0  0  0  0  0  0
  1  2  1  0  0  0  0
  1 20  1  0  0  0  0
  1 21  1  0  0  0  0
  1 22  1  0  0  0  0
  2  6  2  0  0  0  0
  2  3  1  0  0  0  0
  3  4  2  0  0  0  0
  3 23  1  0  0  0  0
  4  5  1  0  0  0  0
  4  8  1  0  0  0  0
  5  6  1  0  0  0  0
  6  7  1  0  0  0  0
  7 24  1  0  0  0  0
  7 25  1  0  0  0  0
  7 26  1  0  0  0  0
  8  9  2  0  0  0  0
  8 10  1  0  0  0  0
 10 27  1  0  0  0  0
 10 11  1  0  0  0  0
 11 12  1  0  0  0  0
 11 15  2  0  0  0  0
 12 13  2  0  0  0  0
 13 16  1  0  0  0  0
 13 14  1  0  0  0  0
 14 15  1  0  0  0  0
 16 17  1  0  0  0  0
 16 18  1  0  0  0  0
 16 19  1  0  0  0  0
M  END
$$$$
ZINC59461162
 OpenBabel01252620473D

 55 57  0  0  0  0  0  0  0  0999 V2000
   -0.0604    1.2700    0.1658 C   0  0  0  0  0  0  0  0  0  0  0  0
   -0.0021   -0.1553    0.0802 O   0  0  0  0  0  0  0  0  0  0  0  0
    0.6039   -0.6836   -1.0167 C   0  0  0  0  0  0  0  0  0  0  0  0
    1.1334    0.1504   -1.9820 C   0  0  0  0  0  0  0  0  0  0  0  0
    1.7561   -0.3968   -3.1090 C   0  0  0  0  0  0  0  0  0  0  0  0
    1.8390   -1.7859   -3.2522 C   0  0  0  0  0  0  0  0  0  0  0  0
    1.3082   -2.6107   -2.2846 C   0  0  0  0  0  0  0  0  0  0  0  0
    0.6955   -2.0669   -1.1637 C   0  0  0  0  0  0  0  0  0  0  0  0
    0.1788   -2.8851   -0.2102 O   0  0  0  0  0  0  0  0  0  0  0  0
    0.3072   -4.2922   -0.4238 C   0  0  0  0  0  0  0  0  0  0  0  0
    2.4965   -2.3695   -4.4431 N   0  0  0  0  0  4  0  0  0  0  0  0
    2.1300   -2.0542   -5.5513 O   0  0  0  0  0  0  0  0  0  0  0  0
    3.4000   -3.1613   -4.3077 O   0  5  0  0  0  0  0  0  0  0  0  0
    2.3215    0.4860   -4.1407 C   0  0  0  0  0  0  0  0  0  0  0  0
    2.9978   -0.0210   -5.1333 N   0  0  0  0  0  0  0  0  0  0  0  0
    3.5239    0.8004   -6.0932 C   0  0  0  0  0  0  0  0  0  0  0  0
    2.7539    1.8344   -6.6307 C   0  0  0  0  0  0  0  0  0  0  0  0
    3.2906    2.6584   -7.5979 C   0  0  0  0  0  0  0  0  0  0  0  0
    4.5883    2.4623   -8.0362 C   0  0  0  0  0  0  0  0  0  0  0  0
    5.3568    1.4400   -7.5081 C   0  0  0  0  0  0  0  0  0  0  0  0
    4.8351    0.6122   -6.5358 C   0  0  0  0  0  0  0  0  0  0  0  0
    5.2653    3.5191   -9.2730 S   0  0  0  0  0  0  0  0  0  0  0  0
    6.3095    2.7899   -9.9030 O   0  0  0  0  0  0  0  0  0  0  0  0
    4.1654    4.0539   -9.9966 O   0  0  0  0  0  0  0  0  0  0  0  0
    5.9812    4.7915   -8.4914 N   0  0  0  0  0  2  0  0  0  0  0  0
    6.6029    5.7920   -9.2216 C   0  0  0  0  0  0  0  0  0  0  0  0
    7.2131    6.8637   -8.5740 C   0  0  0  0  0  0  0  0  0  0  0  0
    7.8235    7.8424   -9.3476 C   0  0  0  0  0  0  0  0  0  0  0  0
    7.8057    7.7254  -10.6722 N   0  0  0  0  0  0  0  0  0  0  0  0
    7.2168    6.6940  -11.2543 C   0  0  0  0  0  0  0  0  0  0  0  0
    6.6300    5.7395  -10.5511 N   0  0  0  0  0  0  0  0  0  0  0  0
    7.2191    6.6101  -12.6062 O   0  0  0  0  0  0  0  0  0  0  0  0
    7.8704    7.6627  -13.3204 C   0  0  0  0  0  0  0  0  0  0  0  0
    8.4291    8.9032   -8.7602 O   0  0  0  0  0  0  0  0  0  0  0  0
    9.0338    9.8662   -9.6257 C   0  0  0  0  0  0  0  0  0  0  0  0
    0.9514    1.6756    0.1662 H   0  0  0  0  0  0  0  0  0  0  0  0
   -0.6091    1.6633   -0.6899 H   0  0  0  0  0  0  0  0  0  0  0  0
   -0.5678    1.5582    1.0864 H   0  0  0  0  0  0  0  0  0  0  0  0
    1.0666    1.2222   -1.8672 H   0  0  0  0  0  0  0  0  0  0  0  0
    1.3728   -3.6829   -2.3962 H   0  0  0  0  0  0  0  0  0  0  0  0
   -0.1459   -4.8290    0.4096 H   0  0  0  0  0  0  0  0  0  0  0  0
   -0.1976   -4.5666   -1.3501 H   0  0  0  0  0  0  0  0  0  0  0  0
    1.3629   -4.5542   -0.4939 H   0  0  0  0  0  0  0  0  0  0  0  0
    2.1765    1.5543   -4.0760 H   0  0  0  0  0  0  0  0  0  0  0  0
    1.7406    1.9881   -6.2900 H   0  0  0  0  0  0  0  0  0  0  0  0
    2.6964    3.4583   -8.0144 H   0  0  0  0  0  0  0  0  0  0  0  0
    6.3689    1.2924   -7.8550 H   0  0  0  0  0  0  0  0  0  0  0  0
    5.4375   -0.1826   -6.1213 H   0  0  0  0  0  0  0  0  0  0  0  0
    7.2113    6.9320   -7.4961 H   0  0  0  0  0  0  0  0  0  0  0  0
    7.7993    7.4732  -14.3914 H   0  0  0  0  0  0  0  0  0  0  0  0
    7.3891    8.6123  -13.0866 H   0  0  0  0  0  0  0  0  0  0  0  0
    8.9195    7.7053  -13.0277 H   0  0  0  0  0  0  0  0  0  0  0  0
    9.8058    9.3827  -10.2242 H   0  0  0  0  0  0  0  0  0  0  0  0
    8.2754   10.2896  -10.2843 H   0  0  0  0  0  0  0  0  0  0  0  0
    9.4813   10.6609   -9.0287 H   0  0  0  0  0  0  0  0  0  0  0  0
  1  2  1  0  0  0  0
  1 36  1  0  0  0  0
  1 37  1  0  0  0  0
  1 38  1  0  0  0  0
  2  3  1  0  0  0  0
  3  8  2  0  0  0  0
  3  4  1  0  0  0  0
  4  5  2  0  0  0  0
  4 39  1  0  0  0  0
  5  6  1  0  0  0  0
  5 14  1  0  0  0  0
  6  7  2  0  0  0  0
  6 11  1  0  0  0  0
  7  8  1  0  0  0  0
  7 40  1  0  0  0  0
  8  9  1  0  0  0  0
  9 10  1  0  0  0  0
 10 41  1  0  0  0  0
 10 42  1  0  0  0  0
 10 43  1  0  0  0  0
 11 12  2  0  0  0  0
 11 13  1  0  0  0  0
 14 15  2  0  0  0  0
 14 44  1  0  0  0  0
 15 16  1  0  0  0  0
 16 21  2  0  0  0  0
 16 17  1  0  0  0  0
 17 18  2  0  0  0  0
 17 45  1  0  0  0  0
 18 19  1  0  0  0  0
 18 46  1  0  0  0  0
 19 20  2  0  0  0  0
 19 22  1  0  0  0  0
 20 21  1  0  0  0  0
 20 47  1  0  0  0  0
 21 48  1  0  0  0  0
 22 23  2  0  0  0  0
 22 24  2  0  0  0  0
 22 25  1  0  0  0  0
 25 26  1  0  0  0  0
 26 31  2  0  0  0  0
 26 27  1  0  0  0  0
 27 28  2  0  0  0  0
 27 49  1  0  0  0  0
 28 29  1  0  0  0  0
 28 34  1  0  0  0  0
 29 30  2  0  0  0  0
 30 31  1  0  0  0  0
 30 32  1  0  0  0  0
 32 33  1  0  0  0  0
 33 50  1  0  0  0  0
 33 51  1  0  0  0  0
 33 52  1  0  0  0  0
 34 35  1  0  0  0  0
 35 53  1  0  0  0  0
 35 54  1  0  0  0  0
 35 55  1  0  0  0  0
M  CHG  1  13  -1
M  END
$$$$
ZINC61690460
 OpenBabel01252620473D

 31 31  0  0  1  0  0  0  0  0999 V2000
   -0.0187    1.5258    0.0104 C   0  0  0  0  0  0  0  0  0  0  0  0
    0.0021   -0.0041    0.0020 C   0  0  2  0  0  0  0  0  0  0  0  0
    0.7309   -0.5033    1.2229 C   0  0  0  0  0  0  0  0  0  0  0  0
    1.7393    0.2578    1.7847 C   0  0  0  0  0  0  0  0  0  0  0  0
    2.4084   -0.1983    2.9045 C   0  0  0  0  0  0  0  0  0  0  0  0
    2.0688   -1.4182    3.4644 C   0  0  0  0  0  0  0  0  0  0  0  0
    1.0585   -2.1802    2.9010 C   0  0  0  0  0  0  0  0  0  0  0  0
    0.3870   -1.7189    1.7835 C   0  0  0  0  0  0  0  0  0  0  0  0
    0.5929   -3.8467    3.6638 Br  0  0  0  0  0  0  0  0  0  0  0  0
    2.7226   -1.8652    4.5589 F   0  0  0  0  0  0  0  0  0  0  0  0
    0.7074   -0.4901   -1.2379 C   0  0  0  0  0  0  0  0  0  0  0  0
    1.8687   -0.1786   -1.4402 O   0  0  0  0  0  0  0  0  0  0  0  0
    0.1168   -1.1947   -2.0386 O   0  0  0  0  0  1  0  0  0  0  0  0
   -1.3386   -0.4987    0.0122 O   0  0  0  0  0  0  0  0  0  0  0  0
   -2.1205   -0.0814   -1.1088 C   0  0  0  0  0  0  0  0  0  0  0  0
   -3.5295   -0.6666   -0.9938 C   0  0  0  0  0  0  0  0  0  0  0  0
   -4.1832   -0.1133    0.1501 O   0  0  0  0  0  0  0  0  0  0  0  0
   -5.5131   -0.5965    0.3499 C   0  0  0  0  0  0  0  0  0  0  0  0
    1.0039    1.9031    0.0027 H   0  0  0  0  0  0  0  0  0  0  0  0
   -0.5459    1.8868   -0.8726 H   0  0  0  0  0  0  0  0  0  0  0  0
   -0.5289    1.8773    0.9072 H   0  0  0  0  0  0  0  0  0  0  0  0
    2.0045    1.2093    1.3478 H   0  0  0  0  0  0  0  0  0  0  0  0
    3.1962    0.3966    3.3426 H   0  0  0  0  0  0  0  0  0  0  0  0
   -0.4039   -2.3105    1.3464 H   0  0  0  0  0  0  0  0  0  0  0  0
   -2.1793    1.0068   -1.1258 H   0  0  0  0  0  0  0  0  0  0  0  0
   -1.6544   -0.4346   -2.0286 H   0  0  0  0  0  0  0  0  0  0  0  0
   -4.0986   -0.4226   -1.8909 H   0  0  0  0  0  0  0  0  0  0  0  0
   -3.4656   -1.7495   -0.8874 H   0  0  0  0  0  0  0  0  0  0  0  0
   -5.9400   -0.1291    1.2373 H   0  0  0  0  0  0  0  0  0  0  0  0
   -6.1233   -0.3511   -0.5193 H   0  0  0  0  0  0  0  0  0  0  0  0
   -5.4904   -1.6780    0.4842 H   0  0  0  0  0  0  0  0  0  0  0  0
  1  2  1  0  0  0  0
  1 19  1  0  0  0  0
  1 20  1  0  0  0  0
  1 21  1  0  0  0  0
  2  3  1  0  0  0  0
  2 11  1  6  0  0  0
  2 14  1  0  0  0  0
  3  8  2  0  0  0  0
  3  4  1  0  0  0  0
  4  5  2  0  0  0  0
  4 22  1  0  0  0  0
  5  6  1  0  0  0  0
  5 23  1  0  0  0  0
  6  7  2  0  0  0  0
  6 10  1  0  0  0  0
  7  8  1  0  0  0  0
  7  9  1  0  0  0  0
  8 24  1  0  0  0  0
 11 12  2  0  0  0  0
 11 13  1  0  0  0  0
 14 15  1  0  0  0  0
 15 16  1  0  0  0  0
 15 25  1  0  0  0  0
 15 26  1  0  0  0  0
 16 17  1  0  0  0  0
 16 27  1  0  0  0  0
 16 28  1  0  0  0  0
 17 18  1  0  0  0  0
 18 29  1  0  0  0  0
 18 30  1  0  0  0  0
 18 31  1  0  0  0  0
M  END
$$$$
ZINC60360540
 OpenBabel01252620473D

 48 49  0  0  0  0  0  0  0  0999 V2000
    0.1854    1.5631    0.0238 C   0  0  0  0  0  0  0  0  0  0  0  0
    0.1468    0.0567    0.0059 C   0  0  0  0  0  0  0  0  0  0  0  0
   -0.7848   -0.6201    0.7695 C   0  0  0  0  0  0  0  0  0  0  0  0
   -0.8204   -2.0020    0.7539 C   0  0  0  0  0  0  0  0  0  0  0  0
    0.0754   -2.7104   -0.0259 C   0  0  0  0  0  0  0  0  0  0  0  0
    1.0083   -2.0384   -0.7914 C   0  0  0  0  0  0  0  0  0  0  0  0
    1.0427   -0.6513   -0.7815 C   0  0  0  0  0  0  0  0  0  0  0  0
    1.9560    0.0123   -1.5381 O   0  0  0  0  0  0  0  0  0  0  0  0
    3.2178    0.2968   -0.9307 C   0  0  0  0  0  0  0  0  0  0  0  0
    4.0937    1.0314   -1.9127 C   0  0  0  0  0  0  0  0  0  0  0  0
    3.6761    1.2875   -3.0292 O   0  0  0  0  0  0  0  0  0  0  0  0
    5.2199    1.3696   -1.5906 O   0  0  0  0  0  1  0  0  0  0  0  0
    1.9842   -2.8110   -1.6409 C   0  0  0  0  0  0  0  0  0  0  0  0
    0.0270   -4.4716   -0.0426 S   0  0  0  0  0  0  0  0  0  0  0  0
   -0.9919   -4.8586    0.8691 O   0  0  0  0  0  0  0  0  0  0  0  0
    0.0169   -4.8647   -1.4081 O   0  0  0  0  0  0  0  0  0  0  0  0
    1.4594   -5.0068    0.5933 N   0  0  0  0  0  0  0  0  0  0  0  0
    1.7513   -4.7834    1.9343 C   0  0  0  0  0  0  0  0  0  0  0  0
    1.5336   -3.5268    2.4926 C   0  0  0  0  0  0  0  0  0  0  0  0
    1.8215   -3.3025    3.8194 C   0  0  0  0  0  0  0  0  0  0  0  0
    2.3331   -4.3381    4.6068 C   0  0  0  0  0  0  0  0  0  0  0  0
    2.5506   -5.5988    4.0433 C   0  0  0  0  0  0  0  0  0  0  0  0
    2.2553   -5.8183    2.7173 C   0  0  0  0  0  0  0  0  0  0  0  0
    2.6433   -4.1009    6.0294 C   0  0  0  0  0  0  0  0  0  0  0  0
    2.4540   -3.0037    6.5182 O   0  0  0  0  0  0  0  0  0  0  0  0
    3.1364   -5.1003    6.7873 N   0  0  0  0  0  0  0  0  0  0  0  0
    3.4445   -4.8648    8.2001 C   0  0  0  0  0  0  0  0  0  0  0  0
    3.9779   -6.1325    8.8160 C   0  0  0  0  0  0  0  0  0  0  0  0
    4.0904   -7.1394    8.1378 O   0  0  0  0  0  0  0  0  0  0  0  0
    4.2971   -6.1512    9.9926 O   0  0  0  0  0  1  0  0  0  0  0  0
   -0.4716    1.9527   -0.7537 H   0  0  0  0  0  0  0  0  0  0  0  0
   -0.1492    1.9236    0.9965 H   0  0  0  0  0  0  0  0  0  0  0  0
    1.2051    1.9026   -0.1584 H   0  0  0  0  0  0  0  0  0  0  0  0
   -1.4855   -0.0692    1.3793 H   0  0  0  0  0  0  0  0  0  0  0  0
   -1.5489   -2.5293    1.3520 H   0  0  0  0  0  0  0  0  0  0  0  0
    3.0642    0.9161   -0.0469 H   0  0  0  0  0  0  0  0  0  0  0  0
    3.7003   -0.6366   -0.6410 H   0  0  0  0  0  0  0  0  0  0  0  0
    1.5935   -2.8984   -2.6547 H   0  0  0  0  0  0  0  0  0  0  0  0
    2.9399   -2.2873   -1.6638 H   0  0  0  0  0  0  0  0  0  0  0  0
    2.1251   -3.8060   -1.2188 H   0  0  0  0  0  0  0  0  0  0  0  0
    2.0947   -5.4761    0.0303 H   0  0  0  0  0  0  0  0  0  0  0  0
    1.1387   -2.7270    1.8836 H   0  0  0  0  0  0  0  0  0  0  0  0
    1.6527   -2.3273    4.2518 H   0  0  0  0  0  0  0  0  0  0  0  0
    2.9461   -6.4007    4.6490 H   0  0  0  0  0  0  0  0  0  0  0  0
    2.4187   -6.7933    2.2825 H   0  0  0  0  0  0  0  0  0  0  0  0
    3.2874   -5.9756    6.3974 H   0  0  0  0  0  0  0  0  0  0  0  0
    4.1939   -4.0776    8.2822 H   0  0  0  0  0  0  0  0  0  0  0  0
    2.5383   -4.5598    8.7236 H   0  0  0  0  0  0  0  0  0  0  0  0
  1  2  1  0  0  0  0
  1 31  1  0  0  0  0
  1 32  1  0  0  0  0
  1 33  1  0  0  0  0
  2  7  2  0  0  0  0
  2  3  1  0  0  0  0
  3  4  2  0  0  0  0
  3 34  1  0  0  0  0
  4  5  1  0  0  0  0
  4 35  1  0  0  0  0
  5  6  2  0  0  0  0
  5 14  1  0  0  0  0
  6  7  1  0  0  0  0
  6 13  1  0  0  0  0
  7  8  1  0  0  0  0
  8  9  1  0  0  0  0
  9 10  1  0  0  0  0
  9 36  1  0  0  0  0
  9 37  1  0  0  0  0
 10 11  2  0  0  0  0
 10 12  1  0  0  0  0
 13 38  1  0  0  0  0
 13 39  1  0  0  0  0
 13 40  1  0  0  0  0
 14 15  2  0  0  0  0
 14 16  2  0  0  0  0
 14 17  1  0  0  0  0
 17 18  1  0  0  0  0
 17 41  1  0  0  0  0
 18 23  2  0  0  0  0
 18 19  1  0  0  0  0
 19 20  2  0  0  0  0
 19 42  1  0  0  0  0
 20 21  1  0  0  0  0
 20 43  1  0  0  0  0
 21 22  2  0  0  0  0
 21 24  1  0  0  0  0
 22 23  1  0  0  0  0
 22 44  1  0  0  0  0
 23 45  1  0  0  0  0
 24 25  2  0  0  0  0
 24 26  1  0  0  0  0
 26 27  1  0  0  0  0
 26 46  1  0  0  0  0
 27 28  1  0  0  0  0
 27 47  1  0  0  0  0
 27 48  1  0  0  0  0
 28 29  2  0  0  0  0
 28 30  1  0  0  0  0
M  END
$$$$
ZINC20199430
 OpenBabel01252620473D

 33 34  0  0  0  0  0  0  0  0999 V2000
    0.6925    1.4916    0.0189 C   0  0  0  0  0  0  0  0  0  0  0  0
    0.4998   -0.0030    0.0108 C   0  0  0  0  0  0  0  0  0  0  0  0
    0.3533   -0.6850   -1.1872 C   0  0  0  0  0  0  0  0  0  0  0  0
    0.1788   -2.0593   -1.1502 C   0  0  0  0  0  0  0  0  0  0  0  0
    0.1572   -2.6758    0.0201 N   0  0  0  0  0  0  0  0  0  0  0  0
    0.3000   -1.9944    1.1472 C   0  0  0  0  0  0  0  0  0  0  0  0
    0.4737   -0.6807    1.1463 N   0  0  0  0  0  0  0  0  0  0  0  0
    0.2720   -2.6713    2.3541 N   0  0  0  0  0  2  0  0  0  0  0  0
    0.0618   -4.3137    2.3775 S   0  0  0  0  0  0  0  0  0  0  0  0
   -1.2510   -4.5621    1.8935 O   0  0  0  0  0  0  0  0  0  0  0  0
    1.2164   -4.8796    1.7727 O   0  0  0  0  0  0  0  0  0  0  0  0
    0.0796   -4.8172    4.0659 C   0  0  0  0  0  0  0  0  0  0  0  0
    1.2748   -5.1617    4.6705 C   0  0  0  0  0  0  0  0  0  0  0  0
    1.2925   -5.5568    5.9936 C   0  0  0  0  0  0  0  0  0  0  0  0
    0.1077   -5.6079    6.7175 C   0  0  0  0  0  0  0  0  0  0  0  0
   -1.0913   -5.2611    6.1070 C   0  0  0  0  0  0  0  0  0  0  0  0
   -1.1008   -4.8615    4.7851 C   0  0  0  0  0  0  0  0  0  0  0  0
    0.1218   -6.0074    8.0559 N   0  0  0  0  0  0  0  0  0  0  0  0
   -0.9223   -6.6899    8.5664 C   0  0  0  0  0  0  0  0  0  0  0  0
   -1.8304   -7.0407    7.8421 O   0  0  0  0  0  0  0  0  0  0  0  0
   -0.9615   -7.0149   10.0258 C   0  0  0  0  0  0  0  0  0  0  0  0
   -1.9069   -7.6329   10.4881 O   0  0  0  0  0  0  0  0  0  0  0  0
   -0.0482   -6.6621   10.7543 O   0  0  0  0  0  1  0  0  0  0  0  0
    1.7568    1.7209   -0.0340 H   0  0  0  0  0  0  0  0  0  0  0  0
    0.1836    1.9282   -0.8405 H   0  0  0  0  0  0  0  0  0  0  0  0
    0.2766    1.9066    0.9369 H   0  0  0  0  0  0  0  0  0  0  0  0
    0.3745   -0.1567   -2.1290 H   0  0  0  0  0  0  0  0  0  0  0  0
    0.0614   -2.6202   -2.0656 H   0  0  0  0  0  0  0  0  0  0  0  0
    2.1953   -5.1221    4.1070 H   0  0  0  0  0  0  0  0  0  0  0  0
    2.2262   -5.8260    6.4649 H   0  0  0  0  0  0  0  0  0  0  0  0
   -2.0141   -5.2997    6.6668 H   0  0  0  0  0  0  0  0  0  0  0  0
   -2.0317   -4.5872    4.3112 H   0  0  0  0  0  0  0  0  0  0  0  0
    0.8830   -5.7937    8.6178 H   0  0  0  0  0  0  0  0  0  0  0  0
  1  2  1  0  0  0  0
  1 24  1  0  0  0  0
  1 25  1  0  0  0  0
  1 26  1  0  0  0  0
  2  7  2  0  0  0  0
  2  3  1  0  0  0  0
  3  4  2  0  0  0  0
  3 27  1  0  0  0  0
  4  5  1  0  0  0  0
  4 28  1  0  0  0  0
  5  6  2  0  0  0  0
  6  7  1  0  0  0  0
  6  8  1  0  0  0  0
  8  9  1  0  0  0  0
  9 10  2  0  0  0  0
  9 11  2  0  0  0  0
  9 12  1  0  0  0  0
 12 17  2  0  0  0  0
 12 13  1  0  0  0  0
 13 14  2  0  0  0  0
 13 29  1  0  0  0  0
 14 15  1  0  0  0  0
 14 30  1  0  0  0  0
 15 16  2  0  0  0  0
 15 18  1  0  0  0  0
 16 17  1  0  0  0  0
 16 31  1  0  0  0  0
 17 32  1  0  0  0  0
 18 19  1  0  0  0  0
 18 33  1  0  0  0  0
 19 20  2  0  0  0  0
 19 21  1  0  0  0  0
 21 22  2  0  0  0  0
 21 23  1  0  0  0  0
M  END
$$$$
ZINC06239832
 OpenBabel01252620473D

 64 68  0  0  1  0  0  0  0  0999 V2000
   -8.3536   -5.2124    1.2917 C   0  0  0  0  0  0  0  0  0  0  0  0
   -8.5754   -4.9061   -0.0864 O   0  0  0  0  0  0  0  0  0  0  0  0
   -7.7968   -3.9375   -0.6363 C   0  0  0  0  0  0  0  0  0  0  0  0
   -7.9585   -3.5896   -1.9695 C   0  0  0  0  0  0  0  0  0  0  0  0
   -7.1661   -2.6043   -2.5260 C   0  0  0  0  0  0  0  0  0  0  0  0
   -6.2124   -1.9651   -1.7554 C   0  0  0  0  0  0  0  0  0  0  0  0
   -6.0455   -2.3140   -0.4279 C   0  0  0  0  0  0  0  0  0  0  0  0
   -6.8393   -3.2947    0.1348 C   0  0  0  0  0  0  0  0  0  0  0  0
   -5.3494   -0.8906   -2.3651 C   0  0  0  0  0  0  0  0  0  0  0  0
   -6.0012    0.4110   -2.2008 N   0  0  0  0  0  0  0  0  0  0  0  0
   -5.8522    1.2544   -1.1624 C   0  0  0  0  0  0  0  0  0  0  0  0
   -6.6034    2.2983   -1.4148 N   0  0  0  0  0  0  0  0  0  0  0  0
   -7.1875    2.1040   -2.5467 N   0  0  0  0  0  0  0  0  0  0  0  0
   -6.8283    0.9631   -3.0228 N   0  0  0  0  0  0  0  0  0  0  0  0
   -4.9849    1.0423    0.0517 C   0  0  1  0  0  0  0  0  0  0  0  0
   -4.6952   -0.0067    0.1125 H   0  0  0  0  0  0  0  0  0  0  0  0
   -3.7500    1.8991   -0.0573 C   0  0  0  0  0  0  0  0  0  0  0  0
   -3.5676    2.6863   -1.1478 C   0  0  0  0  0  0  0  0  0  0  0  0
   -2.3614    3.5101   -1.2213 C   0  0  0  0  0  0  0  0  0  0  0  0
   -2.1172    4.3377   -2.3239 C   0  0  0  0  0  0  0  0  0  0  0  0
   -0.9813    5.0918   -2.3670 C   0  0  0  0  0  0  0  0  0  0  0  0
   -0.0578    5.0414   -1.3234 C   0  0  0  0  0  0  0  0  0  0  0  0
   -0.2786    4.2260   -0.2272 C   0  0  0  0  0  0  0  0  0  0  0  0
   -1.4296    3.4511   -0.1662 C   0  0  0  0  0  0  0  0  0  0  0  0
   -1.6749    2.6303    0.9145 N   0  0  0  0  0  0  0  0  0  0  0  0
   -1.0147    2.5926    1.6646 H   0  0  0  0  0  0  0  0  0  0  0  0
   -2.7890    1.8800    0.9740 C   0  0  0  0  0  0  0  0  0  0  0  0
   -2.9730    1.1656    1.9444 O   0  0  0  0  0  0  0  0  0  0  0  0
    1.0673    5.7989   -1.3831 O   0  0  0  0  0  0  0  0  0  0  0  0
    1.2362    6.6194   -2.5408 C   0  0  0  0  0  0  0  0  0  0  0  0
   -5.9936    2.8592    1.2935 C   0  0  0  0  0  0  0  0  0  0  0  0
   -6.6440    3.2306    2.6281 C   0  0  0  0  0  0  0  0  0  0  0  0
   -7.9541    2.4537    2.7855 C   0  0  1  0  0  0  0  0  0  0  0  0
   -7.6622    0.9532    2.6980 C   0  0  0  0  0  0  0  0  0  0  0  0
   -6.9823    0.6478    1.3614 C   0  0  0  0  0  0  0  0  0  0  0  0
   -8.5374    2.7535    4.0551 O   0  0  0  0  0  0  0  0  0  0  0  0
   -9.0393   -6.0001    1.6038 H   0  0  0  0  0  0  0  0  0  0  0  0
   -7.3262   -5.5499    1.4280 H   0  0  0  0  0  0  0  0  0  0  0  0
   -8.5261   -4.3206    1.8944 H   0  0  0  0  0  0  0  0  0  0  0  0
   -8.7035   -4.0883   -2.5717 H   0  0  0  0  0  0  0  0  0  0  0  0
   -7.2918   -2.3328   -3.5637 H   0  0  0  0  0  0  0  0  0  0  0  0
   -5.2967   -1.8166    0.1706 H   0  0  0  0  0  0  0  0  0  0  0  0
   -6.7115   -3.5637    1.1729 H   0  0  0  0  0  0  0  0  0  0  0  0
   -5.2095   -1.0956   -3.4264 H   0  0  0  0  0  0  0  0  0  0  0  0
   -4.3800   -0.8770   -1.8668 H   0  0  0  0  0  0  0  0  0  0  0  0
   -4.2991    2.7069   -1.9420 H   0  0  0  0  0  0  0  0  0  0  0  0
   -2.8280    4.3823   -3.1358 H   0  0  0  0  0  0  0  0  0  0  0  0
   -0.7956    5.7328   -3.2161 H   0  0  0  0  0  0  0  0  0  0  0  0
    0.4412    4.1922    0.5773 H   0  0  0  0  0  0  0  0  0  0  0  0
    1.2585    5.9913   -3.4313 H   0  0  0  0  0  0  0  0  0  0  0  0
    0.4060    7.3220   -2.6125 H   0  0  0  0  0  0  0  0  0  0  0  0
    2.1731    7.1709   -2.4617 H   0  0  0  0  0  0  0  0  0  0  0  0
   -5.0534    3.3998    1.1848 H   0  0  0  0  0  0  0  0  0  0  0  0
   -6.6631    3.1272    0.4762 H   0  0  0  0  0  0  0  0  0  0  0  0
   -6.8509    4.3006    2.6468 H   0  0  0  0  0  0  0  0  0  0  0  0
   -5.9695    2.9760    3.4456 H   0  0  0  0  0  0  0  0  0  0  0  0
   -8.6446    2.7374    1.9913 H   0  0  0  0  0  0  0  0  0  0  0  0
   -8.5966    0.3961    2.7667 H   0  0  0  0  0  0  0  0  0  0  0  0
   -7.0035    0.6623    3.5163 H   0  0  0  0  0  0  0  0  0  0  0  0
   -7.6472    0.9262    0.5438 H   0  0  0  0  0  0  0  0  0  0  0  0
   -6.7602   -0.4177    1.3022 H   0  0  0  0  0  0  0  0  0  0  0  0
   -8.7488    3.6889    4.1798 H   0  0  0  0  0  0  0  0  0  0  0  0
   -5.7162    1.4069    1.2826 N   0  3  1  0  0  0  0  0  0  0  0  0
   -5.1363    1.1726    2.0968 H   0  0  0  0  0  0  0  0  0  0  0  0
  1  2  1  0  0  0  0
  1 37  1  0  0  0  0
  1 38  1  0  0  0  0
  1 39  1  0  0  0  0
  2  3  1  0  0  0  0
  3  8  2  0  0  0  0
  3  4  1  0  0  0  0
  4  5  2  0  0  0  0
  4 40  1  0  0  0  0
  5  6  1  0  0  0  0
  5 41  1  0  0  0  0
  6  7  2  0  0  0  0
  6  9  1  0  0  0  0
  7  8  1  0  0  0  0
  7 42  1  0  0  0  0
  8 43  1  0  0  0  0
  9 10  1  0  0  0  0
  9 44  1  0  0  0  0
  9 45  1  0  0  0  0
 10 14  1  0  0  0  0
 10 11  1  0  0  0  0
 11 12  2  0  0  0  0
 11 15  1  0  0  0  0
 12 13  1  0  0  0  0
 13 14  2  0  0  0  0
 15 16  1  1  0  0  0
 15 17  1  0  0  0  0
 15 63  1  0  0  0  0
 17 27  1  0  0  0  0
 17 18  2  0  0  0  0
 18 19  1  0  0  0  0
 18 46  1  0  0  0  0
 19 24  2  0  0  0  0
 19 20  1  0  0  0  0
 20 21  2  0  0  0  0
 20 47  1  0  0  0  0
 21 22  1  0  0  0  0
 21 48  1  0  0  0  0
 22 23  2  0  0  0  0
 22 29  1  0  0  0  0
 23 24  1  0  0  0  0
 23 49  1  0  0  0  0
 24 25  1  0  0  0  0
 25 26  1  0  0  0  0
 25 27  1  0  0  0  0
 27 28  2  0  0  0  0
 29 30  1  0  0  0  0
 30 50  1  0  0  0  0
 30 51  1  0  0  0  0
 30 52  1  0  0  0  0
 31 32  1  0  0  0  0
 31 53  1  0  0  0  0
 31 54  1  0  0  0  0
 31 63  1  0  0  0  0
 32 33  1  0  0  0  0
 32 55  1  0  0  0  0
 32 56  1  0  0  0  0
 33 34  1  0  0  0  0
 33 36  1  0  0  0  0
 33 57  1  6  0  0  0
 34 35  1  0  0  0  0
 34 58  1  0  0  0  0
 34 59  1  0  0  0  0
 35 60  1  0  0  0  0
 35 61  1  0  0  0  0
 35 63  1  0  0  0  0
 36 62  1  0  0  0  0
 63 64  1  1  0  0  0
M  CHG  1  63   1
M  END
$$$$
ZINC41037351
 OpenBabel01252620473D

 37 38  0  0  1  0  0  0  0  0999 V2000
   -0.0187    1.5258    0.0104 C   0  0  0  0  0  0  0  0  0  0  0  0
    0.0021   -0.0041    0.0020 C   0  0  1  0  0  0  0  0  0  0  0  0
   -1.0205   -0.3814    0.0098 H   0  0  0  0  0  0  0  0  0  0  0  0
    0.7182   -0.4975   -1.2568 C   0  0  0  0  0  0  0  0  0  0  0  0
    2.1536    0.0321   -1.2676 C   0  0  0  0  0  0  0  0  0  0  0  0
    2.8936   -0.4747   -0.0281 C   0  0  0  0  0  0  0  0  0  0  0  0
    2.1775    0.0187    1.2307 C   0  0  0  0  0  0  0  0  0  0  0  0
    0.7421   -0.5109    1.2415 C   0  0  1  0  0  0  0  0  0  0  0  0
    0.0367   -0.0249    2.4814 C   0  0  0  0  0  0  0  0  0  0  0  0
   -0.4082   -0.8277    3.2840 O   0  0  0  0  0  0  0  0  0  0  0  0
   -0.0891    1.1711    2.6820 O   0  0  0  0  0  1  0  0  0  0  0  0
    0.7619   -1.9757    1.2335 N   0  0  0  0  0  0  0  0  0  0  0  0
    1.3642   -2.6470    2.2350 C   0  0  0  0  0  0  0  0  0  0  0  0
    1.8906   -2.0375    3.1443 O   0  0  0  0  0  0  0  0  0  0  0  0
    1.3844   -4.1323    2.2268 C   0  0  0  0  0  0  0  0  0  0  0  0
    0.7828   -4.8435    1.1872 C   0  0  0  0  0  0  0  0  0  0  0  0
    0.8144   -6.2315    1.2013 C   0  0  0  0  0  0  0  0  0  0  0  0
    1.4214   -6.8940    2.2119 N   0  0  0  0  0  0  0  0  0  0  0  0
    2.0107   -6.2265    3.2296 C   0  0  0  0  0  0  0  0  0  0  0  0
    2.0102   -4.8382    3.2557 C   0  0  0  0  0  0  0  0  0  0  0  0
    2.6041   -6.9093    4.2167 O   0  0  0  0  0  0  0  0  0  0  0  0
    0.2392   -6.9194    0.2070 O   0  5  0  0  0  0  0  0  0  0  0  0
    1.0039    1.9031    0.0027 H   0  0  0  0  0  0  0  0  0  0  0  0
   -0.5459    1.8868   -0.8726 H   0  0  0  0  0  0  0  0  0  0  0  0
   -0.5289    1.8773    0.9072 H   0  0  0  0  0  0  0  0  0  0  0  0
    0.7330   -1.5874   -1.2628 H   0  0  0  0  0  0  0  0  0  0  0  0
    0.1910   -0.1364   -2.1398 H   0  0  0  0  0  0  0  0  0  0  0  0
    2.6638   -0.3194   -2.1644 H   0  0  0  0  0  0  0  0  0  0  0  0
    2.1388    1.1220   -1.2617 H   0  0  0  0  0  0  0  0  0  0  0  0
    2.9084   -1.5646   -0.0341 H   0  0  0  0  0  0  0  0  0  0  0  0
    3.9162   -0.0975   -0.0359 H   0  0  0  0  0  0  0  0  0  0  0  0
    2.7046   -0.3424    2.1137 H   0  0  0  0  0  0  0  0  0  0  0  0
    2.1627    1.1086    1.2367 H   0  0  0  0  0  0  0  0  0  0  0  0
    0.3416   -2.4625    0.5073 H   0  0  0  0  0  0  0  0  0  0  0  0
    0.2964   -4.3183    0.3785 H   0  0  0  0  0  0  0  0  0  0  0  0
    2.4863   -4.3089    4.0679 H   0  0  0  0  0  0  0  0  0  0  0  0
    1.4339   -7.8639    2.2069 H   0  0  0  0  0  0  0  0  0  0  0  0
  1  2  1  0  0  0  0
  1 23  1  0  0  0  0
  1 24  1  0  0  0  0
  1 25  1  0  0  0  0
  2  3  1  1  0  0  0
  2  8  1  0  0  0  0
  2  4  1  0  0  0  0
  4  5  1  0  0  0  0
  4 26  1  0  0  0  0
  4 27  1  0  0  0  0
  5  6  1  0  0  0  0
  5 28  1  0  0  0  0
  5 29  1  0  0  0  0
  6  7  1  0  0  0  0
  6 30  1  0  0  0  0
  6 31  1  0  0  0  0
  7  8  1  0  0  0  0
  7 32  1  0  0  0  0
  7 33  1  0  0  0  0
  8  9  1  1  0  0  0
  8 12  1  0  0  0  0
  9 10  2  0  0  0  0
  9 11  1  0  0  0  0
 12 13  1  0  0  0  0
 12 34  1  0  0  0  0
 13 14  2  0  0  0  0
 13 15  1  0  0  0  0
 15 16  1  0  0  0  0
 15 20  2  0  0  0  0
 16 17  2  0  0  0  0
 16 35  1  0  0  0  0
 17 18  1  0  0  0  0
 17 22  1  0  0  0  0
 18 37  1  0  0  0  0
 18 19  1  0  0  0  0
 19 20  1  0  0  0  0
 19 21  2  0  0  0  0
 20 36  1  0  0  0  0
M  CHG  1  22  -1
M  END
$$$$
ZINC19365052
 OpenBabel01252620473D

 40 41  0  0  0  0  0  0  0  0999 V2000
    0.4007    0.6076    1.3561 C   0  0  0  0  0  0  0  0  0  0  0  0
    0.0018   -0.0047    0.0120 C   0  0  0  0  0  0  0  0  0  0  0  0
   -1.3664   -0.6254    0.1290 C   0  0  0  0  0  0  0  0  0  0  0  0
   -1.5005   -2.0562    0.4371 C   0  0  0  0  0  0  0  0  0  0  0  0
   -1.5874   -2.5051    1.7679 C   0  0  0  0  0  0  0  0  0  0  0  0
   -1.5491   -1.6246    2.7949 O   0  5  0  0  0  0  0  0  0  0  0  0
   -1.7079   -3.8061    1.9990 N   0  0  0  0  0  0  0  0  0  0  0  0
   -1.7467   -4.6750    1.0011 C   0  0  0  0  0  0  0  0  0  0  0  0
   -1.8710   -5.9924    1.2848 O   0  5  0  0  0  0  0  0  0  0  0  0
   -1.6683   -4.2975   -0.2652 N   0  0  0  0  0  0  0  0  0  0  0  0
   -1.5515   -3.0163   -0.5902 C   0  0  0  0  0  0  0  0  0  0  0  0
   -1.4774   -2.6398   -1.8880 O   0  5  0  0  0  0  0  0  0  0  0  0
   -2.4251    0.1027   -0.0421 N   0  0  0  0  0  0  0  0  0  0  0  0
   -2.2972    1.5514   -0.2188 C   0  0  0  0  0  0  0  0  0  0  0  0
   -2.7899    1.9405   -1.6140 C   0  0  0  0  0  0  0  0  0  0  0  0
   -2.6616    3.3932   -1.7911 N   0  0  0  0  0  0  0  0  0  0  0  0
   -3.5615    4.1156   -0.8830 C   0  0  0  0  0  0  0  0  0  0  0  0
   -3.2977    5.6192   -0.9906 C   0  0  0  0  0  0  0  0  0  0  0  0
   -3.5296    6.0710   -2.4351 C   0  0  0  0  0  0  0  0  0  0  0  0
   -2.6150    5.2693   -3.3654 C   0  0  0  0  0  0  0  0  0  0  0  0
   -2.8986    3.7758   -3.1889 C   0  0  0  0  0  0  0  0  0  0  0  0
    1.3414    1.1470    1.2448 H   0  0  0  0  0  0  0  0  0  0  0  0
   -0.3764    1.2969    1.6863 H   0  0  0  0  0  0  0  0  0  0  0  0
    0.5215   -0.1847    2.0948 H   0  0  0  0  0  0  0  0  0  0  0  0
   -0.0163    0.7737   -0.7508 H   0  0  0  0  0  0  0  0  0  0  0  0
    0.7255   -0.7705   -0.2675 H   0  0  0  0  0  0  0  0  0  0  0  0
   -2.8963    2.0635    0.5341 H   0  0  0  0  0  0  0  0  0  0  0  0
   -1.2518    1.8399   -0.1091 H   0  0  0  0  0  0  0  0  0  0  0  0
   -2.1908    1.4284   -2.3669 H   0  0  0  0  0  0  0  0  0  0  0  0
   -3.8353    1.6521   -1.7237 H   0  0  0  0  0  0  0  0  0  0  0  0
   -4.5962    3.9079   -1.1558 H   0  0  0  0  0  0  0  0  0  0  0  0
   -3.3834    3.7880    0.1413 H   0  0  0  0  0  0  0  0  0  0  0  0
   -3.9765    6.1561   -0.3280 H   0  0  0  0  0  0  0  0  0  0  0  0
   -2.2671    5.8292   -0.7046 H   0  0  0  0  0  0  0  0  0  0  0  0
   -4.5702    5.8968   -2.7087 H   0  0  0  0  0  0  0  0  0  0  0  0
   -3.3009    7.1328   -2.5259 H   0  0  0  0  0  0  0  0  0  0  0  0
   -2.8060    5.5563   -4.3995 H   0  0  0  0  0  0  0  0  0  0  0  0
   -1.5736    5.4738   -3.1168 H   0  0  0  0  0  0  0  0  0  0  0  0
   -2.2390    3.2015   -3.8395 H   0  0  0  0  0  0  0  0  0  0  0  0
   -3.9364    3.5698   -3.4509 H   0  0  0  0  0  0  0  0  0  0  0  0
  1  2  1  0  0  0  0
  1 22  1  0  0  0  0
  1 23  1  0  0  0  0
  1 24  1  0  0  0  0
  2  3  1  0  0  0  0
  2 25  1  0  0  0  0
  2 26  1  0  0  0  0
  3  4  1  0  0  0  0
  3 13  2  0  0  0  0
  4 11  2  0  0  0  0
  4  5  1  0  0  0  0
  5  6  1  0  0  0  0
  5  7  2  0  0  0  0
  7  8  1  0  0  0  0
  8  9  1  0  0  0  0
  8 10  2  0  0  0  0
 10 11  1  0  0  0  0
 11 12  1  0  0  0  0
 13 14  1  0  0  0  0
 14 15  1  0  0  0  0
 14 27  1  0  0  0  0
 14 28  1  0  0  0  0
 15 16  1  0  0  0  0
 15 29  1  0  0  0  0
 15 30  1  0  0  0  0
 16 21  1  0  0  0  0
 16 17  1  0  0  0  0
 17 18  1  0  0  0  0
 17 31  1  0  0  0  0
 17 32  1  0  0  0  0
 18 19  1  0  0  0  0
 18 33  1  0  0  0  0
 18 34  1  0  0  0  0
 19 20  1  0  0  0  0
 19 35  1  0  0  0  0
 19 36  1  0  0  0  0
 20 21  1  0  0  0  0
 20 37  1  0  0  0  0
 20 38  1  0  0  0  0
 21 39  1  0  0  0  0
 21 40  1  0  0  0  0
M  CHG  3   6  -1   9  -1  12  -1
M  END
$$$$
ZINC40102204
 OpenBabel01252620473D

 59 61  0  0  1  0  0  0  0  0999 V2000
   -0.9498    1.3552    0.3428 C   0  0  0  0  0  0  0  0  0  0  0  0
   -0.8051   -0.1607    0.1944 C   0  0  0  0  0  0  0  0  0  0  0  0
    0.0713   -0.4511   -0.8962 O   0  0  0  0  0  0  0  0  0  0  0  0
    0.3088   -1.7628   -1.1651 C   0  0  0  0  0  0  0  0  0  0  0  0
   -0.2932   -2.7486   -0.3997 C   0  0  0  0  0  0  0  0  0  0  0  0
   -0.0511   -4.0816   -0.6746 C   0  0  0  0  0  0  0  0  0  0  0  0
    0.7915   -4.4345   -1.7123 C   0  0  0  0  0  0  0  0  0  0  0  0
    1.3956   -3.4561   -2.4796 C   0  0  0  0  0  0  0  0  0  0  0  0
    1.1524   -2.1182   -2.2132 C   0  0  0  0  0  0  0  0  0  0  0  0
    1.7412   -1.1545   -2.9709 O   0  0  0  0  0  0  0  0  0  0  0  0
    2.5124   -1.5914   -4.0918 C   0  0  0  0  0  0  0  0  0  0  0  0
    1.0523   -5.8892   -2.0074 C   0  0  2  0  0  0  0  0  0  0  0  0
    1.8478   -5.9845   -2.7465 H   0  0  0  0  0  0  0  0  0  0  0  0
   -0.2084   -6.5508   -2.5130 C   0  0  0  0  0  0  0  0  0  0  0  0
   -0.5107   -7.5368   -1.6361 C   0  0  0  0  0  0  0  0  0  0  0  0
    0.5038   -7.5583   -0.5611 C   0  0  0  0  0  0  0  0  0  0  0  0
    0.5099   -8.3308    0.3765 O   0  0  0  0  0  0  0  0  0  0  0  0
    1.4211   -6.5958   -0.7751 N   0  0  0  0  0  0  0  0  0  0  0  0
    2.5808   -6.3047    0.0713 C   0  0  0  0  0  0  0  0  0  0  0  0
    2.1907   -5.2765    1.1350 C   0  0  0  0  0  0  0  0  0  0  0  0
    1.2158   -5.8447    2.0119 O   0  0  0  0  0  0  0  0  0  0  0  0
   -1.5724   -8.3700   -1.7289 O   0  5  0  0  0  0  0  0  0  0  0  0
   -0.9596   -6.1936   -3.7199 C   0  0  0  0  0  0  0  0  0  0  0  0
   -2.1204   -5.8402   -3.6316 O   0  0  0  0  0  0  0  0  0  0  0  0
   -0.3066   -6.2627   -5.0448 C   0  0  0  0  0  0  0  0  0  0  0  0
    0.9858   -6.7795   -5.1632 C   0  0  0  0  0  0  0  0  0  0  0  0
    1.5916   -6.8428   -6.4007 C   0  0  0  0  0  0  0  0  0  0  0  0
    0.9234   -6.3961   -7.5265 C   0  0  0  0  0  0  0  0  0  0  0  0
   -0.3612   -5.8805   -7.4187 C   0  0  0  0  0  0  0  0  0  0  0  0
   -0.9813   -5.8174   -6.1823 C   0  0  0  0  0  0  0  0  0  0  0  0
   -1.0126   -5.4427   -8.5283 O   0  0  0  0  0  0  0  0  0  0  0  0
   -0.3155   -5.5430   -9.7717 C   0  0  0  0  0  0  0  0  0  0  0  0
   -1.1879   -5.0138  -10.8808 C   0  0  0  0  0  0  0  0  0  0  0  0
   -0.6838   -4.2090  -11.7833 C   0  0  0  0  0  0  0  0  0  0  0  0
    0.0281    1.7964    0.5352 H   0  0  0  0  0  0  0  0  0  0  0  0
   -1.3623    1.7724   -0.5758 H   0  0  0  0  0  0  0  0  0  0  0  0
   -1.6183    1.5766    1.1748 H   0  0  0  0  0  0  0  0  0  0  0  0
   -0.3926   -0.5780    1.1130 H   0  0  0  0  0  0  0  0  0  0  0  0
   -1.7831   -0.6020    0.0021 H   0  0  0  0  0  0  0  0  0  0  0  0
   -0.9512   -2.4755    0.4120 H   0  0  0  0  0  0  0  0  0  0  0  0
   -0.5209   -4.8489   -0.0772 H   0  0  0  0  0  0  0  0  0  0  0  0
    2.0537   -3.7345   -3.2894 H   0  0  0  0  0  0  0  0  0  0  0  0
    2.9871   -0.7311   -4.5637 H   0  0  0  0  0  0  0  0  0  0  0  0
    3.2785   -2.2900   -3.7555 H   0  0  0  0  0  0  0  0  0  0  0  0
    1.8598   -2.0862   -4.8111 H   0  0  0  0  0  0  0  0  0  0  0  0
    2.9151   -7.2213    0.5573 H   0  0  0  0  0  0  0  0  0  0  0  0
    3.3874   -5.9040   -0.5427 H   0  0  0  0  0  0  0  0  0  0  0  0
    3.0737   -4.9935    1.7080 H   0  0  0  0  0  0  0  0  0  0  0  0
    1.7733   -4.3935    0.6511 H   0  0  0  0  0  0  0  0  0  0  0  0
    0.9216   -5.2473    2.7130 H   0  0  0  0  0  0  0  0  0  0  0  0
    1.5105   -7.1288   -4.2862 H   0  0  0  0  0  0  0  0  0  0  0  0
    2.5910   -7.2422   -6.4910 H   0  0  0  0  0  0  0  0  0  0  0  0
    1.4029   -6.4483   -8.4928 H   0  0  0  0  0  0  0  0  0  0  0  0
   -1.9824   -5.4209   -6.0980 H   0  0  0  0  0  0  0  0  0  0  0  0
    0.6030   -4.9583   -9.7215 H   0  0  0  0  0  0  0  0  0  0  0  0
   -0.0714   -6.5870   -9.9682 H   0  0  0  0  0  0  0  0  0  0  0  0
   -2.2286   -5.2979  -10.9316 H   0  0  0  0  0  0  0  0  0  0  0  0
   -1.3090   -3.8298  -12.5781 H   0  0  0  0  0  0  0  0  0  0  0  0
    0.3569   -3.9249  -11.7325 H   0  0  0  0  0  0  0  0  0  0  0  0
  1  2  1  0  0  0  0
  1 35  1  0  0  0  0
  1 36  1  0  0  0  0
  1 37  1  0  0  0  0
  2  3  1  0  0  0  0
  2 38  1  0  0  0  0
  2 39  1  0  0  0  0
  3  4  1  0  0  0  0
  4  9  2  0  0  0  0
  4  5  1  0  0  0  0
  5  6  2  0  0  0  0
  5 40  1  0  0  0  0
  6  7  1  0  0  0  0
  6 41  1  0  0  0  0
  7  8  2  0  0  0  0
  7 12  1  0  0  0  0
  8  9  1  0  0  0  0
  8 42  1  0  0  0  0
  9 10  1  0  0  0  0
 10 11  1  0  0  0  0
 11 43  1  0  0  0  0
 11 44  1  0  0  0  0
 11 45  1  0  0  0  0
 12 13  1  6  0  0  0
 12 18  1  0  0  0  0
 12 14  1  0  0  0  0
 14 15  2  0  0  0  0
 14 23  1  0  0  0  0
 15 16  1  0  0  0  0
 15 22  1  0  0  0  0
 16 17  2  0  0  0  0
 16 18  1  0  0  0  0
 18 19  1  0  0  0  0
 19 20  1  0  0  0  0
 19 46  1  0  0  0  0
 19 47  1  0  0  0  0
 20 21  1  0  0  0  0
 20 48  1  0  0  0  0
 20 49  1  0  0  0  0
 21 50  1  0  0  0  0
 23 24  2  0  0  0  0
 23 25  1  0  0  0  0
 25 30  2  0  0  0  0
 25 26  1  0  0  0  0
 26 27  2  0  0  0  0
 26 51  1  0  0  0  0
 27 28  1  0  0  0  0
 27 52  1  0  0  0  0
 28 29  2  0  0  0  0
 28 53  1  0  0  0  0
 29 30  1  0  0  0  0
 29 31  1  0  0  0  0
 30 54  1  0  0  0  0
 31 32  1  0  0  0  0
 32 33  1  0  0  0  0
 32 55  1  0  0  0  0
 32 56  1  0  0  0  0
 33 34  2  0  0  0  0
 33 57  1  0  0  0  0
 34 58  1  0  0  0  0
 34 59  1  0  0  0  0
M  CHG  1  22  -1
M  END
$$$$
ZINC65383216
 OpenBabel01252620473D

 43 45  0  0  1  0  0  0  0  0999 V2000
   -0.0184    1.5028    0.0103 C   0  0  0  0  0  0  0  0  0  0  0  0
    0.0021   -0.0041    0.0020 C   0  0  0  0  0  0  0  0  0  0  0  0
    0.0080   -0.8237   -1.1409 C   0  0  0  0  0  0  0  0  0  0  0  0
    0.0273   -2.1079   -0.7353 C   0  0  0  0  0  0  0  0  0  0  0  0
    0.0335   -2.1190    0.6064 O   0  0  0  0  0  0  0  0  0  0  0  0
    0.0230   -0.7748    1.0524 N   0  0  0  0  0  0  0  0  0  0  0  0
    0.0393   -3.3197   -1.6311 C   0  0  0  0  0  0  0  0  0  0  0  0
   -0.0076   -0.2673   -2.8126 S   0  0  0  0  0  0  0  0  0  0  0  0
   -0.5474   -1.3282   -3.5887 O   0  0  0  0  0  0  0  0  0  0  0  0
   -0.5765    1.0348   -2.8020 O   0  0  0  0  0  0  0  0  0  0  0  0
    1.5698   -0.0907   -3.2847 N   0  0  0  0  0  0  0  0  0  0  0  0
    2.2700    1.1867   -3.0931 C   0  0  0  0  0  0  0  0  0  0  0  0
    2.8602    1.6315   -4.4350 C   0  0  0  0  0  0  0  0  0  0  0  0
    3.7383    0.5116   -4.9979 C   0  0  0  0  0  0  0  0  0  0  0  0
    2.8858   -0.7370   -5.2353 C   0  0  2  0  0  0  0  0  0  0  0  0
    2.0776   -0.4995   -5.9271 H   0  0  0  0  0  0  0  0  0  0  0  0
    2.2977   -1.2104   -3.8974 C   0  0  0  0  0  0  0  0  0  0  0  0
    3.7575   -1.8451   -5.8294 C   0  0  0  0  0  0  0  0  0  0  0  0
    4.2270   -1.4387   -7.1563 N   0  0  0  0  0  0  0  0  0  0  0  0
    5.5066   -1.3909   -7.5743 C   0  0  0  0  0  0  0  0  0  0  0  0
    5.4797   -0.9557   -8.8816 C   0  0  0  0  0  0  0  0  0  0  0  0
    4.1965   -0.7494   -9.2296 N   0  0  0  0  0  0  0  0  0  0  0  0
    3.4298   -1.0312   -8.2348 N   0  0  0  0  0  0  0  0  0  0  0  0
    6.6518   -0.7515   -9.7472 C   0  0  0  0  0  0  0  0  0  0  0  0
    7.7757   -0.9731   -9.3174 O   0  0  0  0  0  0  0  0  0  0  0  0
    6.5026   -0.3600  -10.8967 O   0  0  0  0  0  1  0  0  0  0  0  0
    1.0042    1.8801    0.0026 H   0  0  0  0  0  0  0  0  0  0  0  0
   -0.5455    1.8639   -0.8728 H   0  0  0  0  0  0  0  0  0  0  0  0
   -0.5286    1.8543    0.9071 H   0  0  0  0  0  0  0  0  0  0  0  0
    1.0697   -3.5980   -1.8521 H   0  0  0  0  0  0  0  0  0  0  0  0
   -0.4610   -4.1477   -1.1290 H   0  0  0  0  0  0  0  0  0  0  0  0
   -0.4822   -3.0898   -2.5603 H   0  0  0  0  0  0  0  0  0  0  0  0
    1.5667    1.9389   -2.7359 H   0  0  0  0  0  0  0  0  0  0  0  0
    3.0718    1.0584   -2.3659 H   0  0  0  0  0  0  0  0  0  0  0  0
    2.0522    1.8466   -5.1343 H   0  0  0  0  0  0  0  0  0  0  0  0
    3.4631    2.5276   -4.2881 H   0  0  0  0  0  0  0  0  0  0  0  0
    4.1792    0.8350   -5.9409 H   0  0  0  0  0  0  0  0  0  0  0  0
    4.5315    0.2800   -4.2870 H   0  0  0  0  0  0  0  0  0  0  0  0
    3.1016   -1.5301   -3.2344 H   0  0  0  0  0  0  0  0  0  0  0  0
    1.6126   -2.0402   -4.0710 H   0  0  0  0  0  0  0  0  0  0  0  0
    4.6144   -2.0214   -5.1792 H   0  0  0  0  0  0  0  0  0  0  0  0
    3.1725   -2.7607   -5.9158 H   0  0  0  0  0  0  0  0  0  0  0  0
    6.3835   -1.6441   -6.9969 H   0  0  0  0  0  0  0  0  0  0  0  0
  1  2  1  0  0  0  0
  1 27  1  0  0  0  0
  1 28  1  0  0  0  0
  1 29  1  0  0  0  0
  2  6  2  0  0  0  0
  2  3  1  0  0  0  0
  3  4  2  0  0  0  0
  3  8  1  0  0  0  0
  4  5  1  0  0  0  0
  4  7  1  0  0  0  0
  5  6  1  0  0  0  0
  7 30  1  0  0  0  0
  7 31  1  0  0  0  0
  7 32  1  0  0  0  0
  8  9  2  0  0  0  0
  8 10  2  0  0  0  0
  8 11  1  0  0  0  0
 11 17  1  0  0  0  0
 11 12  1  0  0  0  0
 12 13  1  0  0  0  0
 12 33  1  0  0  0  0
 12 34  1  0  0  0  0
 13 14  1  0  0  0  0
 13 35  1  0  0  0  0
 13 36  1  0  0  0  0
 14 15  1  0  0  0  0
 14 37  1  0  0  0  0
 14 38  1  0  0  0  0
 15 16  1  6  0  0  0
 15 17  1  0  0  0  0
 15 18  1  0  0  0  0
 17 39  1  0  0  0  0
 17 40  1  0  0  0  0
 18 19  1  0  0  0  0
 18 41  1  0  0  0  0
 18 42  1  0  0  0  0
 19 23  1  0  0  0  0
 19 20  1  0  0  0  0
 20 21  2  0  0  0  0
 20 43  1  0  0  0  0
 21 22  1  0  0  0  0
 21 24  1  0  0  0  0
 22 23  2  0  0  0  0
 24 25  2  0  0  0  0
 24 26  1  0  0  0  0
M  END
$$$$
ZINC36072038
 OpenBabel01252620473D

 54 56  0  0  1  0  0  0  0  0999 V2000
    0.0516    1.8827    0.2889 C   0  0  0  0  0  0  0  0  0  0  0  0
    0.0561    0.3763    0.3309 C   0  0  0  0  0  0  0  0  0  0  0  0
   -1.1202   -0.3181    0.1345 C   0  0  0  0  0  0  0  0  0  0  0  0
   -1.0649   -1.8286    0.1859 C   0  0  2  0  0  0  0  0  0  0  0  0
   -1.7500   -2.1632    0.9648 H   0  0  0  0  0  0  0  0  0  0  0  0
    0.2617   -2.4487    0.4456 N   0  0  0  0  0  0  0  0  0  0  0  0
    0.5463   -3.7970    0.5340 C   0  0  0  0  0  0  0  0  0  0  0  0
    1.8268   -4.1527    0.7777 C   0  0  0  0  0  0  0  0  0  0  0  0
    2.6359   -2.5688    0.8828 S   0  0  0  0  0  0  0  0  0  0  0  0
    1.3055   -1.5819    0.6130 C   0  0  0  0  0  0  0  0  0  0  0  0
    1.1895   -0.2718    0.5504 N   0  0  0  0  0  0  0  0  0  0  0  0
   -0.5067   -4.8095    0.3693 C   0  0  0  0  0  0  0  0  0  0  0  0
   -0.2308   -6.1096    0.5872 C   0  0  0  0  0  0  0  0  0  0  0  0
    1.0415   -6.4981    0.8468 O   0  5  0  0  0  0  0  0  0  0  0  0
   -1.2469   -7.0494    0.5459 N   0  0  0  0  0  0  0  0  0  0  0  0
   -0.9678   -8.4456    0.8911 C   0  0  0  0  0  0  0  0  0  0  0  0
   -2.2191   -9.2913    0.6463 C   0  0  0  0  0  0  0  0  0  0  0  0
   -2.5222   -9.3004   -0.7502 O   0  0  0  0  0  0  0  0  0  0  0  0
   -3.6799  -10.0666   -1.0887 C   0  0  0  0  0  0  0  0  0  0  0  0
   -1.5731   -2.3565   -1.1310 C   0  0  0  0  0  0  0  0  0  0  0  0
   -0.7197   -2.4468   -2.2148 C   0  0  0  0  0  0  0  0  0  0  0  0
   -1.1852   -2.9309   -3.4228 C   0  0  0  0  0  0  0  0  0  0  0  0
   -2.5056   -3.3251   -3.5472 C   0  0  0  0  0  0  0  0  0  0  0  0
   -3.3592   -3.2344   -2.4622 C   0  0  0  0  0  0  0  0  0  0  0  0
   -2.8910   -2.7555   -1.2531 C   0  0  0  0  0  0  0  0  0  0  0  0
   -3.0912   -3.9326   -5.0643 Cl  0  0  0  0  0  0  0  0  0  0  0  0
   -2.3278    0.3550   -0.1044 C   0  0  0  0  0  0  0  0  0  0  0  0
   -2.7358    0.4889   -1.2457 O   0  0  0  0  0  0  0  0  0  0  0  0
   -3.0370    0.8537    0.9276 N   0  0  0  0  0  0  0  0  0  0  0  0
   -4.3419    1.4748    0.6874 C   0  0  0  0  0  0  0  0  0  0  0  0
   -2.5029    0.7747    2.2894 C   0  0  0  0  0  0  0  0  0  0  0  0
    1.0622    2.2539    0.4588 H   0  0  0  0  0  0  0  0  0  0  0  0
   -0.2994    2.2179   -0.6871 H   0  0  0  0  0  0  0  0  0  0  0  0
   -0.6114    2.2658    1.0647 H   0  0  0  0  0  0  0  0  0  0  0  0
    2.2500   -5.1409    0.8820 H   0  0  0  0  0  0  0  0  0  0  0  0
   -1.5015   -4.5108    0.0736 H   0  0  0  0  0  0  0  0  0  0  0  0
   -2.1434   -6.7833    0.2885 H   0  0  0  0  0  0  0  0  0  0  0  0
   -0.1514   -8.8168    0.2716 H   0  0  0  0  0  0  0  0  0  0  0  0
   -0.6852   -8.5106    1.9418 H   0  0  0  0  0  0  0  0  0  0  0  0
   -2.0403  -10.3115    0.9859 H   0  0  0  0  0  0  0  0  0  0  0  0
   -3.0582   -8.8667    1.1974 H   0  0  0  0  0  0  0  0  0  0  0  0
   -3.8422  -10.0233   -2.1657 H   0  0  0  0  0  0  0  0  0  0  0  0
   -3.5314  -11.1029   -0.7851 H   0  0  0  0  0  0  0  0  0  0  0  0
   -4.5493   -9.6581   -0.5736 H   0  0  0  0  0  0  0  0  0  0  0  0
    0.3108   -2.1388   -2.1177 H   0  0  0  0  0  0  0  0  0  0  0  0
   -0.5186   -3.0011   -4.2696 H   0  0  0  0  0  0  0  0  0  0  0  0
   -4.3900   -3.5416   -2.5588 H   0  0  0  0  0  0  0  0  0  0  0  0
   -3.5560   -2.6891   -0.4047 H   0  0  0  0  0  0  0  0  0  0  0  0
   -5.0135    0.7456    0.2343 H   0  0  0  0  0  0  0  0  0  0  0  0
   -4.7614    1.8164    1.6337 H   0  0  0  0  0  0  0  0  0  0  0  0
   -4.2216    2.3246    0.0155 H   0  0  0  0  0  0  0  0  0  0  0  0
   -1.9844    1.7026    2.5308 H   0  0  0  0  0  0  0  0  0  0  0  0
   -3.3217    0.6224    2.9926 H   0  0  0  0  0  0  0  0  0  0  0  0
   -1.8051   -0.0599    2.3582 H   0  0  0  0  0  0  0  0  0  0  0  0
  1  2  1  0  0  0  0
  1 32  1  0  0  0  0
  1 33  1  0  0  0  0
  1 34  1  0  0  0  0
  2 11  1  0  0  0  0
  2  3  2  0  0  0  0
  3  4  1  0  0  0  0
  3 27  1  0  0  0  0
  4  5  1  1  0  0  0
  4  6  1  0  0  0  0
  4 20  1  0  0  0  0
  6 10  1  0  0  0  0
  6  7  1  0  0  0  0
  7  8  2  0  0  0  0
  7 12  1  0  0  0  0
  8  9  1  0  0  0  0
  8 35  1  0  0  0  0
  9 10  1  0  0  0  0
 10 11  2  0  0  0  0
 12 13  2  0  0  0  0
 12 36  1  0  0  0  0
 13 14  1  0  0  0  0
 13 15  1  0  0  0  0
 15 16  1  0  0  0  0
 15 37  1  0  0  0  0
 16 17  1  0  0  0  0
 16 38  1  0  0  0  0
 16 39  1  0  0  0  0
 17 18  1  0  0  0  0
 17 40  1  0  0  0  0
 17 41  1  0  0  0  0
 18 19  1  0  0  0  0
 19 42  1  0  0  0  0
 19 43  1  0  0  0  0
 19 44  1  0  0  0  0
 20 25  2  0  0  0  0
 20 21  1  0  0  0  0
 21 22  2  0  0  0  0
 21 45  1  0  0  0  0
 22 23  1  0  0  0  0
 22 46  1  0  0  0  0
 23 24  2  0  0  0  0
 23 26  1  0  0  0  0
 24 25  1  0  0  0  0
 24 47  1  0  0  0  0
 25 48  1  0  0  0  0
 27 28  2  0  0  0  0
 27 29  1  0  0  0  0
 29 30  1  0  0  0  0
 29 31  1  0  0  0  0
 30 49  1  0  0  0  0
 30 50  1  0  0  0  0
 30 51  1  0  0  0  0
 31 52  1  0  0  0  0
 31 53  1  0  0  0  0
 31 54  1  0  0  0  0
M  CHG  1  14  -1
M  END
$$$$
ZINC60269562
 OpenBabel01252620473D

 53 55  0  0  0  0  0  0  0  0999 V2000
   -0.7413    0.9875    0.6275 C   0  0  0  0  0  0  0  0  0  0  0  0
   -0.5592   -0.5157    0.4083 C   0  0  0  0  0  0  0  0  0  0  0  0
    0.2234   -0.7343   -0.7672 O   0  0  0  0  0  0  0  0  0  0  0  0
    0.5632   -2.0026   -1.0459 C   0  0  0  0  0  0  0  0  0  0  0  0
    0.1325   -2.9061   -0.3691 O   0  0  0  0  0  0  0  0  0  0  0  0
    1.4820   -2.2997   -2.2029 C   0  0  0  0  0  0  0  0  0  0  0  0
    1.6147   -3.7540   -2.3620 N   0  0  0  0  0  0  0  0  0  0  0  0
    2.1611   -4.0914   -3.6832 C   0  0  0  0  0  0  0  0  0  0  0  0
    1.1707   -3.7029   -4.7505 C   0  0  0  0  0  0  0  0  0  0  0  0
    0.2121   -4.6083   -5.1657 C   0  0  0  0  0  0  0  0  0  0  0  0
   -0.6970   -4.2531   -6.1441 C   0  0  0  0  0  0  0  0  0  0  0  0
   -0.6474   -2.9897   -6.7085 C   0  0  0  0  0  0  0  0  0  0  0  0
    0.3132   -2.0837   -6.2919 C   0  0  0  0  0  0  0  0  0  0  0  0
    1.2179   -2.4395   -5.3096 C   0  0  0  0  0  0  0  0  0  0  0  0
   -1.5352   -2.6415   -7.6654 F   0  0  0  0  0  0  0  0  0  0  0  0
    2.4383   -4.3279   -1.2894 C   0  0  0  0  0  0  0  0  0  0  0  0
    3.8378   -3.7762   -1.3809 C   0  0  0  0  0  0  0  0  0  0  0  0
    4.8152   -4.2108   -0.4885 C   0  0  0  0  0  0  0  0  0  0  0  0
    6.0818   -3.7015   -0.5829 C   0  0  0  0  0  0  0  0  0  0  0  0
    6.3542   -2.7779   -1.5526 N   0  0  0  0  0  0  0  0  0  0  0  0
    5.3638   -2.3815   -2.4056 C   0  0  0  0  0  0  0  0  0  0  0  0
    4.1345   -2.8882   -2.3081 N   0  0  0  0  0  0  0  0  0  0  0  0
    5.9372   -1.4375   -3.2805 C   0  0  0  0  0  0  0  0  0  0  0  0
    7.2884   -1.3014   -2.9063 C   0  0  0  0  0  0  0  0  0  0  0  0
    7.5239   -2.0905   -1.8930 N   0  0  0  0  0  0  0  0  0  0  0  0
    5.2593   -0.7340   -4.3694 C   0  0  0  0  0  0  0  0  0  0  0  0
    4.0616   -0.8734   -4.5311 O   0  0  0  0  0  0  0  0  0  0  0  0
    5.9623    0.0692   -5.1943 O   0  0  0  0  0  0  0  0  0  0  0  0
    5.2361    0.7248   -6.2359 C   0  0  0  0  0  0  0  0  0  0  0  0
    6.1941    1.5855   -7.0619 C   0  0  0  0  0  0  0  0  0  0  0  0
    7.0492   -4.1057    0.2708 O   0  5  0  0  0  0  0  0  0  0  0  0
    0.2345    1.4580    0.7479 H   0  0  0  0  0  0  0  0  0  0  0  0
   -1.2500    1.4212   -0.2335 H   0  0  0  0  0  0  0  0  0  0  0  0
   -1.3383    1.1542    1.5241 H   0  0  0  0  0  0  0  0  0  0  0  0
   -0.0506   -0.9494    1.2692 H   0  0  0  0  0  0  0  0  0  0  0  0
   -1.5351   -0.9862    0.2878 H   0  0  0  0  0  0  0  0  0  0  0  0
    1.0677   -1.8707   -3.1153 H   0  0  0  0  0  0  0  0  0  0  0  0
    2.4624   -1.8643   -2.0094 H   0  0  0  0  0  0  0  0  0  0  0  0
    3.0945   -3.5504   -3.8393 H   0  0  0  0  0  0  0  0  0  0  0  0
    2.3496   -5.1637   -3.7353 H   0  0  0  0  0  0  0  0  0  0  0  0
    0.1738   -5.5938   -4.7255 H   0  0  0  0  0  0  0  0  0  0  0  0
   -1.4456   -4.9607   -6.4685 H   0  0  0  0  0  0  0  0  0  0  0  0
    0.3531   -1.0981   -6.7317 H   0  0  0  0  0  0  0  0  0  0  0  0
    1.9645   -1.7314   -4.9813 H   0  0  0  0  0  0  0  0  0  0  0  0
    2.0079   -4.0682   -0.3223 H   0  0  0  0  0  0  0  0  0  0  0  0
    2.4677   -5.4124   -1.3947 H   0  0  0  0  0  0  0  0  0  0  0  0
    4.5758   -4.9415    0.2699 H   0  0  0  0  0  0  0  0  0  0  0  0
    8.0101   -0.6518   -3.3792 H   0  0  0  0  0  0  0  0  0  0  0  0
    4.7712   -0.0216   -6.8800 H   0  0  0  0  0  0  0  0  0  0  0  0
    4.4645    1.3580   -5.7979 H   0  0  0  0  0  0  0  0  0  0  0  0
    6.9656    0.9524   -7.4999 H   0  0  0  0  0  0  0  0  0  0  0  0
    5.6401    2.0856   -7.8563 H   0  0  0  0  0  0  0  0  0  0  0  0
    6.6590    2.3320   -6.4178 H   0  0  0  0  0  0  0  0  0  0  0  0
  1  2  1  0  0  0  0
  1 32  1  0  0  0  0
  1 33  1  0  0  0  0
  1 34  1  0  0  0  0
  2  3  1  0  0  0  0
  2 35  1  0  0  0  0
  2 36  1  0  0  0  0
  3  4  1  0  0  0  0
  4  5  2  0  0  0  0
  4  6  1  0  0  0  0
  6  7  1  0  0  0  0
  6 37  1  0  0  0  0
  6 38  1  0  0  0  0
  7  8  1  0  0  0  0
  7 16  1  0  0  0  0
  8  9  1  0  0  0  0
  8 39  1  0  0  0  0
  8 40  1  0  0  0  0
  9 14  2  0  0  0  0
  9 10  1  0  0  0  0
 10 11  2  0  0  0  0
 10 41  1  0  0  0  0
 11 12  1  0  0  0  0
 11 42  1  0  0  0  0
 12 13  2  0  0  0  0
 12 15  1  0  0  0  0
 13 14  1  0  0  0  0
 13 43  1  0  0  0  0
 14 44  1  0  0  0  0
 16 17  1  0  0  0  0
 16 45  1  0  0  0  0
 16 46  1  0  0  0  0
 17 22  2  0  0  0  0
 17 18  1  0  0  0  0
 18 19  2  0  0  0  0
 18 47  1  0  0  0  0
 19 20  1  0  0  0  0
 19 31  1  0  0  0  0
 20 25  1  0  0  0  0
 20 21  1  0  0  0  0
 21 22  1  0  0  0  0
 21 23  2  0  0  0  0
 23 24  1  0  0  0  0
 23 26  1  0  0  0  0
 24 25  2  0  0  0  0
 24 48  1  0  0  0  0
 26 27  2  0  0  0  0
 26 28  1  0  0  0  0
 28 29  1  0  0  0  0
 29 30  1  0  0  0  0
 29 49  1  0  0  0  0
 29 50  1  0  0  0  0
 30 51  1  0  0  0  0
 30 52  1  0  0  0  0
 30 53  1  0  0  0  0
M  CHG  1  31  -1
M  END
$$$$
ZINC22890628
 OpenBabel01252620473D

 56 58  0  0  0  0  0  0  0  0999 V2000
    0.1898   -5.9113   -1.0575 C   0  0  0  0  0  0  0  0  0  0  0  0
    0.2275   -4.9786    0.1256 C   0  0  0  0  0  0  0  0  0  0  0  0
   -0.2546   -3.6973    0.0300 C   0  0  0  0  0  0  0  0  0  0  0  0
    0.0568   -3.1034    1.6865 S   0  0  0  0  0  0  0  0  0  0  0  0
    0.7593   -4.5592    2.3208 C   0  0  0  0  0  0  0  0  0  0  0  0
    0.7221   -5.3688    1.2779 N   0  0  0  0  0  0  0  0  0  0  0  0
    1.2430   -4.8071    3.5976 N   0  0  0  0  0  0  0  0  0  0  0  0
    1.7627   -6.0136    3.8990 C   0  0  0  0  0  0  0  0  0  0  0  0
    1.8076   -6.8826    3.0542 O   0  0  0  0  0  0  0  0  0  0  0  0
    2.2880   -6.2827    5.2855 C   0  0  0  0  0  0  0  0  0  0  0  0
    2.8178   -7.7161    5.3609 C   0  0  0  0  0  0  0  0  0  0  0  0
    3.3285   -7.9778    6.7088 N   0  0  0  0  0  0  0  0  0  0  0  0
    3.8481   -9.1842    7.0102 C   0  0  0  0  0  0  0  0  0  0  0  0
    3.8931  -10.0555    6.1633 O   0  0  0  0  0  0  0  0  0  0  0  0
    4.3180   -9.4249    8.2502 N   0  0  0  0  0  0  0  0  0  0  0  0
    4.8828  -10.7364    8.5778 C   0  0  0  0  0  0  0  0  0  0  0  0
    3.7564  -11.6913    8.9780 C   0  0  0  0  0  0  0  0  0  0  0  0
    4.3464  -13.0610    9.3200 C   0  0  0  0  0  0  0  0  0  0  0  0
    5.3299  -12.9166   10.4831 C   0  0  0  0  0  0  0  0  0  0  0  0
    6.4563  -11.9616   10.0829 C   0  0  0  0  0  0  0  0  0  0  0  0
    5.8664  -10.5920    9.7408 C   0  0  0  0  0  0  0  0  0  0  0  0
   -0.8558   -3.0024   -1.1203 C   0  0  0  0  0  0  0  0  0  0  0  0
   -1.0429   -3.5130   -2.3083 N   0  0  0  0  0  0  0  0  0  0  0  0
   -1.6383   -2.5316   -3.1126 N   0  0  0  0  0  0  0  0  0  0  0  0
   -1.8002   -1.4278   -2.3547 C   0  0  0  0  0  0  0  0  0  0  0  0
   -2.4909    0.0539   -2.8632 S   0  0  0  0  0  1  0  0  0  0  0  0
   -1.3176   -1.6997   -1.1260 N   0  0  0  0  0  0  0  0  0  0  0  0
   -1.2926   -0.7753    0.0102 C   0  0  0  0  0  0  0  0  0  0  0  0
    0.0021   -0.0041    0.0020 C   0  0  0  0  0  0  0  0  0  0  0  0
   -0.0157    1.3058    0.0092 C   0  0  0  0  0  0  0  0  0  0  0  0
   -0.2593   -5.3939   -1.9181 H   0  0  0  0  0  0  0  0  0  0  0  0
   -0.4125   -6.7970   -0.8071 H   0  0  0  0  0  0  0  0  0  0  0  0
    1.2136   -6.2237   -1.3109 H   0  0  0  0  0  0  0  0  0  0  0  0
    1.2023   -4.0189    4.3638 H   0  0  0  0  0  0  0  0  0  0  0  0
    3.1021   -5.5785    5.5122 H   0  0  0  0  0  0  0  0  0  0  0  0
    1.4765   -6.1528    6.0167 H   0  0  0  0  0  0  0  0  0  0  0  0
    2.0037   -8.4203    5.1341 H   0  0  0  0  0  0  0  0  0  0  0  0
    3.6293   -7.8460    4.6297 H   0  0  0  0  0  0  0  0  0  0  0  0
    3.2879   -7.1896    7.4750 H   0  0  0  0  0  0  0  0  0  0  0  0
    4.2774   -8.6366    9.0163 H   0  0  0  0  0  0  0  0  0  0  0  0
    5.3985  -11.1015    7.6774 H   0  0  0  0  0  0  0  0  0  0  0  0
    3.2296  -11.2894    9.8560 H   0  0  0  0  0  0  0  0  0  0  0  0
    3.0492  -11.7951    8.1419 H   0  0  0  0  0  0  0  0  0  0  0  0
    3.5366  -13.7476    9.6077 H   0  0  0  0  0  0  0  0  0  0  0  0
    4.8733  -13.4629    8.4420 H   0  0  0  0  0  0  0  0  0  0  0  0
    4.8030  -12.5147   11.3611 H   0  0  0  0  0  0  0  0  0  0  0  0
    5.7540  -13.9013   10.7291 H   0  0  0  0  0  0  0  0  0  0  0  0
    7.1634  -11.8578   10.9191 H   0  0  0  0  0  0  0  0  0  0  0  0
    6.9832  -12.3635    9.2049 H   0  0  0  0  0  0  0  0  0  0  0  0
    6.6762   -9.9055    9.4530 H   0  0  0  0  0  0  0  0  0  0  0  0
    5.3396  -10.1900   10.6188 H   0  0  0  0  0  0  0  0  0  0  0  0
   -2.1371   -0.0749   -0.0684 H   0  0  0  0  0  0  0  0  0  0  0  0
   -1.3744   -1.3445    0.9479 H   0  0  0  0  0  0  0  0  0  0  0  0
    0.9621   -0.5410   -0.0100 H   0  0  0  0  0  0  0  0  0  0  0  0
    0.9293    1.8687    0.0032 H   0  0  0  0  0  0  0  0  0  0  0  0
   -0.9757    1.8427    0.0212 H   0  0  0  0  0  0  0  0  0  0  0  0
  1  2  1  0  0  0  0
  1 31  1  0  0  0  0
  1 32  1  0  0  0  0
  1 33  1  0  0  0  0
  2  6  1  0  0  0  0
  2  3  2  0  0  0  0
  3  4  1  0  0  0  0
  3 22  1  0  0  0  0
  4  5  1  0  0  0  0
  5  6  2  0  0  0  0
  5  7  1  0  0  0  0
  7  8  1  0  0  0  0
  7 34  1  0  0  0  0
  8  9  2  0  0  0  0
  8 10  1  0  0  0  0
 10 11  1  0  0  0  0
 10 35  1  0  0  0  0
 10 36  1  0  0  0  0
 11 12  1  0  0  0  0
 11 37  1  0  0  0  0
 11 38  1  0  0  0  0
 12 13  1  0  0  0  0
 12 39  1  0  0  0  0
 13 14  2  0  0  0  0
 13 15  1  0  0  0  0
 15 16  1  0  0  0  0
 15 40  1  0  0  0  0
 16 21  1  0  0  0  0
 16 17  1  0  0  0  0
 16 41  1  0  0  0  0
 17 18  1  0  0  0  0
 17 42  1  0  0  0  0
 17 43  1  0  0  0  0
 18 19  1  0  0  0  0
 18 44  1  0  0  0  0
 18 45  1  0  0  0  0
 19 20  1  0  0  0  0
 19 46  1  0  0  0  0
 19 47  1  0  0  0  0
 20 21  1  0  0  0  0
 20 48  1  0  0  0  0
 20 49  1  0  0  0  0
 21 50  1  0  0  0  0
 21 51  1  0  0  0  0
 22 27  1  0  0  0  0
 22 23  2  0  0  0  0
 23 24  1  0  0  0  0
 24 25  2  0  0  0  0
 25 26  1  0  0  0  0
 25 27  1  0  0  0  0
 27 28  1  0  0  0  0
 28 29  1  0  0  0  0
 28 52  1  0  0  0  0
 28 53  1  0  0  0  0
 29 30  2  0  0  0  0
 29 54  1  0  0  0  0
 30 55  1  0  0  0  0
 30 56  1  0  0  0  0
M  END
$$$$
ZINC54501715
 OpenBabel01252620473D

 35 37  0  0  1  0  0  0  0  0999 V2000
   -0.0163    1.3489    0.0095 C   0  0  0  0  0  0  0  0  0  0  0  0
    1.3085    1.7974   -0.0008 C   0  0  0  0  0  0  0  0  0  0  0  0
    2.0941    0.7512   -0.0139 N   0  0  0  0  0  0  0  0  0  0  0  0
    1.2927   -0.3978   -0.0124 N   0  0  0  0  0  0  0  0  0  0  0  0
    0.0021   -0.0041    0.0020 C   0  0  0  0  0  0  0  0  0  0  0  0
    1.7713   -1.7824   -0.0249 C   0  0  0  0  0  0  0  0  0  0  0  0
    2.6946   -1.9842   -1.1987 C   0  0  0  0  0  0  0  0  0  0  0  0
    4.0339   -1.8044   -1.1865 C   0  0  0  0  0  0  0  0  0  0  0  0
    4.5020   -2.0991   -2.4765 C   0  0  0  0  0  0  0  0  0  0  0  0
    3.4111   -2.4482   -3.2197 C   0  0  0  0  0  0  0  0  0  0  0  0
    2.3238   -2.3770   -2.4242 O   0  0  0  0  0  0  0  0  0  0  0  0
    3.4202   -2.8369   -4.6338 C   0  0  0  0  0  0  0  0  0  0  0  0
    4.4695   -2.8681   -5.2495 O   0  0  0  0  0  0  0  0  0  0  0  0
    2.2666   -3.1597   -5.2515 N   0  0  0  0  0  0  0  0  0  0  0  0
    2.2758   -3.5480   -6.6641 C   0  0  2  0  0  0  0  0  0  0  0  0
    3.0387   -2.9766   -7.1930 H   0  0  0  0  0  0  0  0  0  0  0  0
    0.9051   -3.2616   -7.2806 C   0  0  0  0  0  0  0  0  0  0  0  0
    0.0472   -4.4624   -7.6841 C   0  0  0  0  0  0  0  0  0  0  0  0
    0.7111   -3.6007   -8.7599 C   0  0  0  0  0  0  0  0  0  0  0  0
    2.5806   -5.0194   -6.7786 C   0  0  0  0  0  0  0  0  0  0  0  0
    2.5922   -5.7190   -5.7802 O   0  0  0  0  0  0  0  0  0  0  0  0
    2.8157   -5.5101   -7.8697 O   0  0  0  0  0  1  0  0  0  0  0  0
   -0.8980    1.9724    0.0252 H   0  0  0  0  0  0  0  0  0  0  0  0
    1.6279    2.8291    0.0017 H   0  0  0  0  0  0  0  0  0  0  0  0
   -0.8615   -0.6526    0.0071 H   0  0  0  0  0  0  0  0  0  0  0  0
    2.3093   -1.9892    0.9003 H   0  0  0  0  0  0  0  0  0  0  0  0
    0.9216   -2.4598   -0.1103 H   0  0  0  0  0  0  0  0  0  0  0  0
    4.6316   -1.4922   -0.3428 H   0  0  0  0  0  0  0  0  0  0  0  0
    5.5265   -2.0575   -2.8156 H   0  0  0  0  0  0  0  0  0  0  0  0
    1.4303   -3.1349   -4.7608 H   0  0  0  0  0  0  0  0  0  0  0  0
    0.3903   -2.3820   -6.8942 H   0  0  0  0  0  0  0  0  0  0  0  0
    0.4592   -5.4565   -7.5102 H   0  0  0  0  0  0  0  0  0  0  0  0
   -1.0324   -4.3730   -7.5630 H   0  0  0  0  0  0  0  0  0  0  0  0
    0.0684   -2.9444   -9.3466 H   0  0  0  0  0  0  0  0  0  0  0  0
    1.5600   -4.0278   -9.2939 H   0  0  0  0  0  0  0  0  0  0  0  0
  1  5  2  0  0  0  0
  1  2  1  0  0  0  0
  1 23  1  0  0  0  0
  2  3  2  0  0  0  0
  2 24  1  0  0  0  0
  3  4  1  0  0  0  0
  4  5  1  0  0  0  0
  4  6  1  0  0  0  0
  5 25  1  0  0  0  0
  6  7  1  0  0  0  0
  6 26  1  0  0  0  0
  6 27  1  0  0  0  0
  7 11  1  0  0  0  0
  7  8  2  0  0  0  0
  8  9  1  0  0  0  0
  8 28  1  0  0  0  0
  9 10  2  0  0  0  0
  9 29  1  0  0  0  0
 10 11  1  0  0  0  0
 10 12  1  0  0  0  0
 12 13  2  0  0  0  0
 12 14  1  0  0  0  0
 14 15  1  0  0  0  0
 14 30  1  0  0  0  0
 15 16  1  6  0  0  0
 15 17  1  0  0  0  0
 15 20  1  0  0  0  0
 17 19  1  0  0  0  0
 17 18  1  0  0  0  0
 17 31  1  0  0  0  0
 18 19  1  0  0  0  0
 18 32  1  0  0  0  0
 18 33  1  0  0  0  0
 19 34  1  0  0  0  0
 19 35  1  0  0  0  0
 20 21  2  0  0  0  0
 20 22  1  0  0  0  0
M  END
$$$$
ZINC66003009
 OpenBabel01252620473D

 44 46  0  0  0  0  0  0  0  0999 V2000
    0.0134    1.5417    0.0310 C   0  0  0  0  0  0  0  0  0  0  0  0
    0.0162    0.0348    0.0185 C   0  0  0  0  0  0  0  0  0  0  0  0
    0.0080   -0.7760   -1.1212 C   0  0  0  0  0  0  0  0  0  0  0  0
    0.0144   -2.0665   -0.7142 C   0  0  0  0  0  0  0  0  0  0  0  0
    0.0261   -2.0722    0.6352 N   0  0  0  0  0  0  0  0  0  0  0  0
    0.0323   -0.7411    1.0719 N   0  0  0  0  0  0  0  0  0  0  0  0
    0.0362   -3.2605    1.4920 C   0  0  0  0  0  0  0  0  0  0  0  0
    0.0088   -3.2799   -1.6079 C   0  0  0  0  0  0  0  0  0  0  0  0
   -0.0086   -0.2158   -2.7917 S   0  0  0  0  0  0  0  0  0  0  0  0
   -0.5642   -1.2687   -3.5676 O   0  0  0  0  0  0  0  0  0  0  0  0
   -0.5623    1.0928   -2.7758 O   0  0  0  0  0  0  0  0  0  0  0  0
    1.5687   -0.0565   -3.2704 N   0  0  0  0  0  0  0  0  0  0  0  0
    1.8447    0.3471   -4.4748 C   0  0  0  0  0  0  0  0  0  0  0  0
    0.8438    0.6369   -5.3369 O   0  5  0  0  0  0  0  0  0  0  0  0
    3.2544    0.4894   -4.9027 C   0  0  0  0  0  0  0  0  0  0  0  0
    4.2888    0.1854   -4.0168 C   0  0  0  0  0  0  0  0  0  0  0  0
    5.6025    0.3189   -4.4180 C   0  0  0  0  0  0  0  0  0  0  0  0
    5.8987    0.7534   -5.6965 C   0  0  0  0  0  0  0  0  0  0  0  0
    4.8758    1.0585   -6.5857 C   0  0  0  0  0  0  0  0  0  0  0  0
    3.5529    0.9220   -6.1936 C   0  0  0  0  0  0  0  0  0  0  0  0
    5.1806    1.4985   -7.8790 N   0  0  0  0  0  0  0  0  0  0  0  0
    6.5310    1.7876   -8.3845 C   0  0  0  0  0  0  0  0  0  0  0  0
    6.2931    2.2282   -9.8419 C   0  0  0  0  0  0  0  0  0  0  0  0
    4.8340    2.1406  -10.0028 N   0  0  0  0  0  0  0  0  0  0  0  0
    4.2893    1.7177   -8.8545 C   0  0  0  0  0  0  0  0  0  0  0  0
    3.0936    1.5516   -8.7096 O   0  0  0  0  0  0  0  0  0  0  0  0
    1.0403    1.9070    0.0202 H   0  0  0  0  0  0  0  0  0  0  0  0
   -0.5130    1.9114   -0.8489 H   0  0  0  0  0  0  0  0  0  0  0  0
   -0.4890    1.8967    0.9308 H   0  0  0  0  0  0  0  0  0  0  0  0
    1.0663   -3.5529    1.6955 H   0  0  0  0  0  0  0  0  0  0  0  0
   -0.4700   -3.0357    2.4308 H   0  0  0  0  0  0  0  0  0  0  0  0
   -0.4803   -4.0768    0.9871 H   0  0  0  0  0  0  0  0  0  0  0  0
    1.0351   -3.5703   -1.8326 H   0  0  0  0  0  0  0  0  0  0  0  0
   -0.4987   -4.1013   -1.1021 H   0  0  0  0  0  0  0  0  0  0  0  0
   -0.5139   -3.0458   -2.5353 H   0  0  0  0  0  0  0  0  0  0  0  0
    4.0613   -0.1540   -3.0171 H   0  0  0  0  0  0  0  0  0  0  0  0
    6.4017    0.0834   -3.7308 H   0  0  0  0  0  0  0  0  0  0  0  0
    6.9286    0.8563   -6.0049 H   0  0  0  0  0  0  0  0  0  0  0  0
    2.7563    1.1544   -6.8848 H   0  0  0  0  0  0  0  0  0  0  0  0
    6.9898    2.5932   -7.8113 H   0  0  0  0  0  0  0  0  0  0  0  0
    7.1515    0.8920   -8.3519 H   0  0  0  0  0  0  0  0  0  0  0  0
    6.6338    3.2526   -9.9924 H   0  0  0  0  0  0  0  0  0  0  0  0
    6.7956    1.5514  -10.5330 H   0  0  0  0  0  0  0  0  0  0  0  0
    4.3443    2.3515  -10.8131 H   0  0  0  0  0  0  0  0  0  0  0  0
  1  2  1  0  0  0  0
  1 27  1  0  0  0  0
  1 28  1  0  0  0  0
  1 29  1  0  0  0  0
  2  6  2  0  0  0  0
  2  3  1  0  0  0  0
  3  4  2  0  0  0  0
  3  9  1  0  0  0  0
  4  5  1  0  0  0  0
  4  8  1  0  0  0  0
  5  6  1  0  0  0  0
  5  7  1  0  0  0  0
  7 30  1  0  0  0  0
  7 31  1  0  0  0  0
  7 32  1  0  0  0  0
  8 33  1  0  0  0  0
  8 34  1  0  0  0  0
  8 35  1  0  0  0  0
  9 10  2  0  0  0  0
  9 11  2  0  0  0  0
  9 12  1  0  0  0  0
 12 13  2  0  0  0  0
 13 14  1  0  0  0  0
 13 15  1  0  0  0  0
 15 20  2  0  0  0  0
 15 16  1  0  0  0  0
 16 17  2  0  0  0  0
 16 36  1  0  0  0  0
 17 18  1  0  0  0  0
 17 37  1  0  0  0  0
 18 19  2  0  0  0  0
 18 38  1  0  0  0  0
 19 20  1  0  0  0  0
 19 21  1  0  0  0  0
 20 39  1  0  0  0  0
 21 25  1  0  0  0  0
 21 22  1  0  0  0  0
 22 23  1  0  0  0  0
 22 40  1  0  0  0  0
 22 41  1  0  0  0  0
 23 24  1  0  0  0  0
 23 42  1  0  0  0  0
 23 43  1  0  0  0  0
 24 25  1  0  0  0  0
 24 44  1  0  0  0  0
 25 26  2  0  0  0  0
M  CHG  1  14  -1
M  END
$$$$
ZINC05763141
 OpenBabel01252620473D

 33 35  0  0  0  0  0  0  0  0999 V2000
    2.1145    1.4178   -0.7417 C   0  0  0  0  0  0  0  0  0  0  0  0
    1.1724    2.0858    0.0194 C   0  0  0  0  0  0  0  0  0  0  0  0
    0.2523    1.3742    0.7669 C   0  0  0  0  0  0  0  0  0  0  0  0
    0.2712   -0.0069    0.7558 C   0  0  0  0  0  0  0  0  0  0  0  0
    1.2159   -0.6807   -0.0073 C   0  0  0  0  0  0  0  0  0  0  0  0
    2.1389    0.0373   -0.7572 C   0  0  0  0  0  0  0  0  0  0  0  0
    1.2379   -2.0786   -0.0208 N   0  0  0  0  0  0  0  0  0  0  0  0
    0.0871   -2.7717    0.0882 C   0  0  0  0  0  0  0  0  0  0  0  0
   -0.9772   -2.1845    0.1017 O   0  0  0  0  0  0  0  0  0  0  0  0
    0.1193   -4.2450    0.1913 C   0  0  0  0  0  0  0  0  0  0  0  0
    1.2229   -5.0261    0.1956 N   0  0  0  0  0  2  0  0  0  0  0  0
    0.8443   -6.2533    0.3008 N   0  0  0  0  0  0  0  0  0  0  0  0
   -0.4629   -6.2924    0.3645 C   0  0  0  0  0  0  0  0  0  0  0  0
   -0.9251   -5.0473    0.3026 N   0  0  0  0  0  0  0  0  0  0  0  0
   -1.3016   -7.5379    0.4924 C   0  0  0  0  0  0  0  0  0  0  0  0
   -1.5097   -7.8430    1.9101 N   0  0  0  0  0  0  0  0  0  0  0  0
   -2.6885   -8.0195    2.5317 C   0  0  0  0  0  0  0  0  0  0  0  0
   -2.4486   -8.2749    3.7922 N   0  0  0  0  0  0  0  0  0  0  0  0
   -1.1345   -8.2699    4.0122 C   0  0  0  0  0  0  0  0  0  0  0  0
   -0.5170   -8.0153    2.8886 N   0  0  0  0  0  0  0  0  0  0  0  0
   -0.7721    2.1063    1.5951 C   0  0  0  0  0  0  0  0  0  0  0  0
   -0.5928    3.4857    1.4461 F   0  0  0  0  0  0  0  0  0  0  0  0
   -2.0564    1.7540    1.1665 F   0  0  0  0  0  0  0  0  0  0  0  0
   -0.6180    1.7587    2.9414 F   0  0  0  0  0  0  0  0  0  0  0  0
    2.8289    1.9766   -1.3280 H   0  0  0  0  0  0  0  0  0  0  0  0
    1.1556    3.1656    0.0301 H   0  0  0  0  0  0  0  0  0  0  0  0
   -0.4475   -0.5621    1.3402 H   0  0  0  0  0  0  0  0  0  0  0  0
    2.8746   -0.4837   -1.3520 H   0  0  0  0  0  0  0  0  0  0  0  0
    2.0813   -2.5496   -0.1086 H   0  0  0  0  0  0  0  0  0  0  0  0
   -2.2658   -7.3778    0.0099 H   0  0  0  0  0  0  0  0  0  0  0  0
   -0.7892   -8.3718    0.0127 H   0  0  0  0  0  0  0  0  0  0  0  0
   -3.6635   -7.9601    2.0710 H   0  0  0  0  0  0  0  0  0  0  0  0
   -0.6568   -8.4511    4.9637 H   0  0  0  0  0  0  0  0  0  0  0  0
  1  6  2  0  0  0  0
  1  2  1  0  0  0  0
  1 25  1  0  0  0  0
  2  3  2  0  0  0  0
  2 26  1  0  0  0  0
  3  4  1  0  0  0  0
  3 21  1  0  0  0  0
  4  5  2  0  0  0  0
  4 27  1  0  0  0  0
  5  6  1  0  0  0  0
  5  7  1  0  0  0  0
  6 28  1  0  0  0  0
  7  8  1  0  0  0  0
  7 29  1  0  0  0  0
  8  9  2  0  0  0  0
  8 10  1  0  0  0  0
 10 14  2  0  0  0  0
 10 11  1  0  0  0  0
 11 12  1  0  0  0  0
 12 13  2  0  0  0  0
 13 14  1  0  0  0  0
 13 15  1  0  0  0  0
 15 16  1  0  0  0  0
 15 30  1  0  0  0  0
 15 31  1  0  0  0  0
 16 20  1  0  0  0  0
 16 17  1  0  0  0  0
 17 18  2  0  0  0  0
 17 32  1  0  0  0  0
 18 19  1  0  0  0  0
 19 20  2  0  0  0  0
 19 33  1  0  0  0  0
 21 22  1  0  0  0  0
 21 23  1  0  0  0  0
 21 24  1  0  0  0  0
M  END
$$$$
ZINC62388429
 OpenBabel01252620473D

 40 41  0  0  1  0  0  0  0  0999 V2000
   -0.0187    1.5258    0.0104 C   0  0  0  0  0  0  0  0  0  0  0  0
    0.0021   -0.0041    0.0020 C   0  0  1  0  0  0  0  0  0  0  0  0
   -1.0203   -0.3820    0.0097 H   0  0  0  0  0  0  0  0  0  0  0  0
    0.7204   -0.4987   -1.2562 C   0  0  0  0  0  0  0  0  0  0  0  0
    2.1199   -0.0496   -1.2238 N   0  0  0  0  0  0  0  0  0  0  0  0
    2.8013   -0.5545   -0.0229 C   0  0  0  0  0  0  0  0  0  0  0  0
    2.0621   -0.0594    1.2229 C   0  0  1  0  0  0  0  0  0  0  0  0
    2.1072    1.0289    1.2644 H   0  0  0  0  0  0  0  0  0  0  0  0
    0.6954   -0.4786    1.1594 O   0  0  0  0  0  0  0  0  0  0  0  0
    2.7193   -0.6460    2.4739 C   0  0  0  0  0  0  0  0  0  0  0  0
    2.8316   -0.4558   -2.4430 C   0  0  0  0  0  0  0  0  0  0  0  0
    4.1761    0.2232   -2.4897 C   0  0  0  0  0  0  0  0  0  0  0  0
    5.3028   -0.5208   -2.4223 C   0  0  0  0  0  0  0  0  0  0  0  0
    6.5602    0.1220   -2.4666 C   0  0  0  0  0  0  0  0  0  0  0  0
    7.5951   -0.5269   -2.4079 O   0  0  0  0  0  0  0  0  0  0  0  0
    6.5975    1.5348   -2.5810 C   0  0  0  0  0  0  0  0  0  0  0  0
    5.4328    2.2231   -2.6441 C   0  0  0  0  0  0  0  0  0  0  0  0
    4.2413    1.5714   -2.6042 N   0  0  0  0  0  0  0  0  0  0  0  0
    2.9992    2.3446   -2.6806 C   0  0  0  0  0  0  0  0  0  0  0  0
    2.5615    2.7305   -1.2912 C   0  0  0  0  0  0  0  0  0  0  0  0
    3.2255    2.3912   -0.3266 O   0  0  0  0  0  0  0  0  0  0  0  0
    1.5434    3.3821   -1.1318 O   0  0  0  0  0  1  0  0  0  0  0  0
    7.7890    2.1911   -2.6264 O   0  0  0  0  0  0  0  0  0  0  0  0
    1.0039    1.9031    0.0027 H   0  0  0  0  0  0  0  0  0  0  0  0
   -0.5459    1.8868   -0.8726 H   0  0  0  0  0  0  0  0  0  0  0  0
   -0.5289    1.8773    0.9072 H   0  0  0  0  0  0  0  0  0  0  0  0
    0.6883   -1.5877   -1.2893 H   0  0  0  0  0  0  0  0  0  0  0  0
    0.2282   -0.0924   -2.1398 H   0  0  0  0  0  0  0  0  0  0  0  0
    2.8025   -1.6445   -0.0363 H   0  0  0  0  0  0  0  0  0  0  0  0
    3.8281   -0.1890   -0.0063 H   0  0  0  0  0  0  0  0  0  0  0  0
    3.7611   -0.3286    2.5197 H   0  0  0  0  0  0  0  0  0  0  0  0
    2.1926   -0.2931    3.3605 H   0  0  0  0  0  0  0  0  0  0  0  0
    2.6725   -1.7342    2.4325 H   0  0  0  0  0  0  0  0  0  0  0  0
    2.9705   -1.5369   -2.4394 H   0  0  0  0  0  0  0  0  0  0  0  0
    2.2483   -0.1674   -3.3174 H   0  0  0  0  0  0  0  0  0  0  0  0
    5.2424   -1.5956   -2.3351 H   0  0  0  0  0  0  0  0  0  0  0  0
    5.4514    3.2994   -2.7309 H   0  0  0  0  0  0  0  0  0  0  0  0
    3.1674    3.2447   -3.2718 H   0  0  0  0  0  0  0  0  0  0  0  0
    2.2236    1.7404   -3.1513 H   0  0  0  0  0  0  0  0  0  0  0  0
    8.5602    1.6102   -2.5741 H   0  0  0  0  0  0  0  0  0  0  0  0
  1  2  1  0  0  0  0
  1 24  1  0  0  0  0
  1 25  1  0  0  0  0
  1 26  1  0  0  0  0
  2  3  1  1  0  0  0
  2  9  1  0  0  0  0
  2  4  1  0  0  0  0
  4  5  1  0  0  0  0
  4 27  1  0  0  0  0
  4 28  1  0  0  0  0
  5  6  1  0  0  0  0
  5 11  1  0  0  0  0
  6  7  1  0  0  0  0
  6 29  1  0  0  0  0
  6 30  1  0  0  0  0
  7  8  1  1  0  0  0
  7  9  1  0  0  0  0
  7 10  1  0  0  0  0
 10 31  1  0  0  0  0
 10 32  1  0  0  0  0
 10 33  1  0  0  0  0
 11 12  1  0  0  0  0
 11 34  1  0  0  0  0
 11 35  1  0  0  0  0
 12 18  1  0  0  0  0
 12 13  2  0  0  0  0
 13 14  1  0  0  0  0
 13 36  1  0  0  0  0
 14 15  2  0  0  0  0
 14 16  1  0  0  0  0
 16 17  2  0  0  0  0
 16 23  1  0  0  0  0
 17 18  1  0  0  0  0
 17 37  1  0  0  0  0
 18 19  1  0  0  0  0
 19 20  1  0  0  0  0
 19 38  1  0  0  0  0
 19 39  1  0  0  0  0
 20 21  2  0  0  0  0
 20 22  1  0  0  0  0
 23 40  1  0  0  0  0
M  END
$$$$
ZINC13057222
 OpenBabel01252620473D

 45 47  0  0  1  0  0  0  0  0999 V2000
   -0.0127    1.0858    0.0080 C   0  0  0  0  0  0  0  0  0  0  0  0
   -0.7288    1.5792    1.2668 C   0  0  0  0  0  0  0  0  0  0  0  0
   -0.7496    3.1091    1.2752 C   0  0  2  0  0  0  0  0  0  0  0  0
    0.2682    3.4868    1.1780 H   0  0  0  0  0  0  0  0  0  0  0  0
   -1.3445    3.5963    2.5713 C   0  0  0  0  0  0  0  0  0  0  0  0
   -2.7167    3.6164    2.7373 C   0  0  0  0  0  0  0  0  0  0  0  0
   -3.2627    4.0586    3.9276 C   0  0  0  0  0  0  0  0  0  0  0  0
   -2.4360    4.4910    4.9490 C   0  0  0  0  0  0  0  0  0  0  0  0
   -1.0632    4.4756    4.7805 C   0  0  0  0  0  0  0  0  0  0  0  0
   -0.5180    4.0283    3.5917 C   0  0  0  0  0  0  0  0  0  0  0  0
   -3.1825    5.1035    6.5748 Br  0  0  0  0  0  0  0  0  0  0  0  0
   -1.5591    3.5926    0.1541 N   0  0  0  0  0  0  0  0  0  0  0  0
   -1.0040    3.7356   -1.0657 C   0  0  0  0  0  0  0  0  0  0  0  0
    0.1658    3.4639   -1.2351 O   0  0  0  0  0  0  0  0  0  0  0  0
   -1.8367    4.2330   -2.2190 C   0  0  0  0  0  0  0  0  0  0  0  0
   -1.0089    4.3002   -3.4258 N   0  0  0  0  0  0  0  0  0  0  0  0
   -0.9213    3.2253   -4.2477 C   0  0  0  0  0  0  0  0  0  0  0  0
   -0.2000    3.2333   -5.3334 N   0  0  0  0  0  0  0  0  0  0  0  0
    0.5017    4.3176   -5.6982 C   0  0  0  0  0  0  0  0  0  0  0  0
    0.4518    5.4552   -4.8923 C   0  0  0  0  0  0  0  0  0  0  0  0
   -0.3370    5.4367   -3.7222 C   0  0  0  0  0  0  0  0  0  0  0  0
   -0.4076    6.4145   -2.9975 O   0  0  0  0  0  0  0  0  0  0  0  0
    1.3116    6.4512   -5.5529 C   0  0  0  0  0  0  0  0  0  0  0  0
    1.7898    5.8366   -6.6707 C   0  0  0  0  0  0  0  0  0  0  0  0
    1.3058    4.5898   -6.7393 O   0  0  0  0  0  0  0  0  0  0  0  0
    2.7213    6.4636   -7.6759 C   0  0  0  0  0  0  0  0  0  0  0  0
    1.5942    7.8220   -5.1013 C   0  0  0  0  0  0  0  0  0  0  0  0
    2.5385    8.0375   -4.3669 O   0  0  0  0  0  0  0  0  0  0  0  0
    0.0021   -0.0041    0.0020 H   0  0  0  0  0  0  0  0  0  0  0  0
    1.0099    1.4631    0.0003 H   0  0  0  0  0  0  0  0  0  0  0  0
   -0.5399    1.4469   -0.8751 H   0  0  0  0  0  0  0  0  0  0  0  0
   -1.7514    1.2020    1.2746 H   0  0  0  0  0  0  0  0  0  0  0  0
   -0.2017    1.2182    2.1499 H   0  0  0  0  0  0  0  0  0  0  0  0
   -3.3622    3.2827    1.9383 H   0  0  0  0  0  0  0  0  0  0  0  0
   -4.3346    4.0708    4.0586 H   0  0  0  0  0  0  0  0  0  0  0  0
   -0.4174    4.8134    5.5775 H   0  0  0  0  0  0  0  0  0  0  0  0
    0.5539    4.0165    3.4600 H   0  0  0  0  0  0  0  0  0  0  0  0
   -2.4947    3.8099    0.2896 H   0  0  0  0  0  0  0  0  0  0  0  0
   -2.6694    3.5501   -2.3871 H   0  0  0  0  0  0  0  0  0  0  0  0
   -2.2223    5.2259   -1.9872 H   0  0  0  0  0  0  0  0  0  0  0  0
   -1.4694    2.3301   -3.9937 H   0  0  0  0  0  0  0  0  0  0  0  0
    3.7537    6.2713   -7.3838 H   0  0  0  0  0  0  0  0  0  0  0  0
    2.5362    6.0338   -8.6603 H   0  0  0  0  0  0  0  0  0  0  0  0
    2.5478    7.5391   -7.7106 H   0  0  0  0  0  0  0  0  0  0  0  0
    0.8059    8.8395   -5.5019 O   0  0  0  0  0  1  0  0  0  0  0  0
  1  2  1  0  0  0  0
  1 29  1  0  0  0  0
  1 30  1  0  0  0  0
  1 31  1  0  0  0  0
  2  3  1  0  0  0  0
  2 32  1  0  0  0  0
  2 33  1  0  0  0  0
  3  4  1  6  0  0  0
  3  5  1  0  0  0  0
  3 12  1  0  0  0  0
  5 10  2  0  0  0  0
  5  6  1  0  0  0  0
  6  7  2  0  0  0  0
  6 34  1  0  0  0  0
  7  8  1  0  0  0  0
  7 35  1  0  0  0  0
  8  9  2  0  0  0  0
  8 11  1  0  0  0  0
  9 10  1  0  0  0  0
  9 36  1  0  0  0  0
 10 37  1  0  0  0  0
 12 13  1  0  0  0  0
 12 38  1  0  0  0  0
 13 14  2  0  0  0  0
 13 15  1  0  0  0  0
 15 16  1  0  0  0  0
 15 39  1  0  0  0  0
 15 40  1  0  0  0  0
 16 21  1  0  0  0  0
 16 17  1  0  0  0  0
 17 18  2  0  0  0  0
 17 41  1  0  0  0  0
 18 19  1  0  0  0  0
 19 25  1  0  0  0  0
 19 20  2  0  0  0  0
 20 21  1  0  0  0  0
 20 23  1  0  0  0  0
 21 22  2  0  0  0  0
 23 24  2  0  0  0  0
 23 27  1  0  0  0  0
 24 25  1  0  0  0  0
 24 26  1  0  0  0  0
 26 42  1  0  0  0  0
 26 43  1  0  0  0  0
 26 44  1  0  0  0  0
 27 28  2  0  0  0  0
 27 45  1  0  0  0  0
M  END
$$$$
ZINC50200850
 OpenBabel01252620473D

 31 32  0  0  1  0  0  0  0  0999 V2000
    0.0565    1.1741    0.6629 C   0  0  0  0  0  0  0  0  0  0  0  0
    1.2323    1.8969    0.6415 C   0  0  0  0  0  0  0  0  0  0  0  0
    2.3513    1.3868   -0.0025 C   0  0  0  0  0  0  0  0  0  0  0  0
    2.2804    0.1326   -0.6308 C   0  0  0  0  0  0  0  0  0  0  0  0
    1.0824   -0.5879   -0.6002 C   0  0  0  0  0  0  0  0  0  0  0  0
   -0.0181   -0.0643    0.0439 C   0  0  0  0  0  0  0  0  0  0  0  0
   -1.6373   -1.0402    0.0842 Br  0  0  0  0  0  0  0  0  0  0  0  0
    3.4591   -0.4194   -1.3173 C   0  0  0  0  0  0  0  0  0  0  0  0
    3.3689   -1.4689   -1.9396 O   0  0  0  0  0  0  0  0  0  0  0  0
    4.5293    0.1712   -1.2659 O   0  0  0  0  0  1  0  0  0  0  0  0
    3.5375    2.1147   -0.0258 N   0  0  0  0  0  0  0  0  0  0  0  0
    3.5014    3.4594   -0.1098 C   0  0  0  0  0  0  0  0  0  0  0  0
    2.4372    4.0403   -0.0835 O   0  0  0  0  0  0  0  0  0  0  0  0
    4.7836    4.2411   -0.2363 C   0  0  2  0  0  0  0  0  0  0  0  0
    5.3179    3.9291   -1.1337 H   0  0  0  0  0  0  0  0  0  0  0  0
    5.6631    4.0002    1.0018 C   0  0  0  0  0  0  0  0  0  0  0  0
    6.8183    5.0296    1.0370 C   0  0  0  0  0  0  0  0  0  0  0  0
    6.1006    6.4724    0.1505 S   0  0  0  0  0  0  0  0  0  0  0  0
    6.8548    6.7117   -1.0298 O   0  0  0  0  0  0  0  0  0  0  0  0
    5.8980    7.5304    1.0773 O   0  0  0  0  0  0  0  0  0  0  0  0
    4.4661    5.7617   -0.3159 C   0  0  0  0  0  0  0  0  0  0  0  0
   -0.8098    1.5740    1.1690 H   0  0  0  0  0  0  0  0  0  0  0  0
    1.2817    2.8608    1.1262 H   0  0  0  0  0  0  0  0  0  0  0  0
    1.0193   -1.5530   -1.0809 H   0  0  0  0  0  0  0  0  0  0  0  0
    4.3901    1.6543    0.0185 H   0  0  0  0  0  0  0  0  0  0  0  0
    5.0574    4.1051    1.9019 H   0  0  0  0  0  0  0  0  0  0  0  0
    6.0773    2.9928    0.9610 H   0  0  0  0  0  0  0  0  0  0  0  0
    7.0699    5.2933    2.0642 H   0  0  0  0  0  0  0  0  0  0  0  0
    7.6924    4.6478    0.5096 H   0  0  0  0  0  0  0  0  0  0  0  0
    4.1841    6.0531   -1.3276 H   0  0  0  0  0  0  0  0  0  0  0  0
    3.6952    6.0415    0.4021 H   0  0  0  0  0  0  0  0  0  0  0  0
  1  6  2  0  0  0  0
  1  2  1  0  0  0  0
  1 22  1  0  0  0  0
  2  3  2  0  0  0  0
  2 23  1  0  0  0  0
  3  4  1  0  0  0  0
  3 11  1  0  0  0  0
  4  5  2  0  0  0  0
  4  8  1  0  0  0  0
  5  6  1  0  0  0  0
  5 24  1  0  0  0  0
  6  7  1  0  0  0  0
  8  9  2  0  0  0  0
  8 10  1  0  0  0  0
 11 12  1  0  0  0  0
 11 25  1  0  0  0  0
 12 13  2  0  0  0  0
 12 14  1  0  0  0  0
 14 15  1  6  0  0  0
 14 21  1  0  0  0  0
 14 16  1  0  0  0  0
 16 17  1  0  0  0  0
 16 26  1  0  0  0  0
 16 27  1  0  0  0  0
 17 18  1  0  0  0  0
 17 28  1  0  0  0  0
 17 29  1  0  0  0  0
 18 19  2  0  0  0  0
 18 20  2  0  0  0  0
 18 21  1  0  0  0  0
 21 30  1  0  0  0  0
 21 31  1  0  0  0  0
M  END
$$$$
ZINC66583926
 OpenBabel01252620473D

 32 33  0  0  0  0  0  0  0  0999 V2000
   -0.0166    1.3753    0.0096 C   0  0  0  0  0  0  0  0  0  0  0  0
    1.1701    2.0869    0.0021 C   0  0  0  0  0  0  0  0  0  0  0  0
    2.3825    1.4218   -0.0131 C   0  0  0  0  0  0  0  0  0  0  0  0
    2.4156    0.0410   -0.0213 C   0  0  0  0  0  0  0  0  0  0  0  0
    1.2214   -0.6825   -0.0138 C   0  0  0  0  0  0  0  0  0  0  0  0
    0.0021   -0.0041    0.0020 C   0  0  0  0  0  0  0  0  0  0  0  0
    1.2486   -2.1601   -0.0230 C   0  0  0  0  0  0  0  0  0  0  0  0
    0.1130   -2.8441   -0.0158 C   0  0  0  0  0  0  0  0  0  0  0  0
    0.1454   -4.6058   -0.0268 S   0  0  0  0  0  0  0  0  0  0  0  0
   -0.7530   -5.0222   -1.0459 O   0  0  0  0  0  0  0  0  0  0  0  0
    1.5143   -4.9868   -0.0156 O   0  0  0  0  0  0  0  0  0  0  0  0
   -0.4997   -5.1163    1.4104 N   0  0  0  0  0  2  0  0  0  0  0  0
   -0.6027   -6.4833    1.6839 C   0  0  0  0  0  0  0  0  0  0  0  0
   -0.1579   -7.4140    0.7512 C   0  0  0  0  0  0  0  0  0  0  0  0
   -0.2567   -8.7666    1.0151 C   0  0  0  0  0  0  0  0  0  0  0  0
   -0.7983   -9.2047    2.2082 C   0  0  0  0  0  0  0  0  0  0  0  0
   -1.2481   -8.2771    3.1531 C   0  0  0  0  0  0  0  0  0  0  0  0
   -1.1424   -6.9098    2.8864 C   0  0  0  0  0  0  0  0  0  0  0  0
   -1.8273   -8.7402    4.4276 C   0  0  0  0  0  0  0  0  0  0  0  0
   -2.2199   -7.9267    5.2523 O   0  0  0  0  0  0  0  0  0  0  0  0
   -1.9152   -9.9377    4.6602 O   0  0  0  0  0  1  0  0  0  0  0  0
   -0.9210  -10.9055    2.5339 Cl  0  0  0  0  0  0  0  0  0  0  0  0
    3.9381   -0.7929   -0.0415 Cl  0  0  0  0  0  0  0  0  0  0  0  0
   -0.9599    1.9011    0.0260 H   0  0  0  0  0  0  0  0  0  0  0  0
    1.1494    3.1667    0.0077 H   0  0  0  0  0  0  0  0  0  0  0  0
    3.3051    1.9831   -0.0189 H   0  0  0  0  0  0  0  0  0  0  0  0
   -0.9251   -0.5578    0.0079 H   0  0  0  0  0  0  0  0  0  0  0  0
    2.1937   -2.6827   -0.0355 H   0  0  0  0  0  0  0  0  0  0  0  0
   -0.8321   -2.3215   -0.0032 H   0  0  0  0  0  0  0  0  0  0  0  0
    0.2662   -7.0781   -0.1836 H   0  0  0  0  0  0  0  0  0  0  0  0
    0.0903   -9.4839    0.2862 H   0  0  0  0  0  0  0  0  0  0  0  0
   -1.4844   -6.1880    3.6132 H   0  0  0  0  0  0  0  0  0  0  0  0
  1  6  2  0  0  0  0
  1  2  1  0  0  0  0
  1 24  1  0  0  0  0
  2  3  2  0  0  0  0
  2 25  1  0  0  0  0
  3  4  1  0  0  0  0
  3 26  1  0  0  0  0
  4  5  2  0  0  0  0
  4 23  1  0  0  0  0
  5  6  1  0  0  0  0
  5  7  1  0  0  0  0
  6 27  1  0  0  0  0
  7  8  2  0  0  0  0
  7 28  1  0  0  0  0
  8  9  1  0  0  0  0
  8 29  1  0  0  0  0
  9 10  2  0  0  0  0
  9 11  2  0  0  0  0
  9 12  1  0  0  0  0
 12 13  1  0  0  0  0
 13 18  2  0  0  0  0
 13 14  1  0  0  0  0
 14 15  2  0  0  0  0
 14 30  1  0  0  0  0
 15 16  1  0  0  0  0
 15 31  1  0  0  0  0
 16 17  2  0  0  0  0
 16 22  1  0  0  0  0
 17 18  1  0  0  0  0
 17 19  1  0  0  0  0
 18 32  1  0  0  0  0
 19 20  2  0  0  0  0
 19 21  1  0  0  0  0
M  END
$$$$
ZINC62844808
 OpenBabel01252620473D

 44 45  0  0  1  0  0  0  0  0999 V2000
   -0.0187    1.5258    0.0104 C   0  0  0  0  0  0  0  0  0  0  0  0
    0.0021   -0.0041    0.0020 C   0  0  0  0  0  0  0  0  0  0  0  0
   -1.4333   -0.5336    0.0129 C   0  0  2  0  0  0  0  0  0  0  0  0
   -2.1499   -0.0386    1.2712 C   0  0  0  0  0  0  0  0  0  0  0  0
   -1.3876   -0.5184    2.5103 C   0  0  0  0  0  0  0  0  0  0  0  0
   -1.2365   -1.9781    2.4368 N   0  0  0  0  0  0  0  0  0  0  0  0
   -0.6416   -2.5667    1.2292 C   0  0  0  0  0  0  0  0  0  0  0  0
   -1.4123   -2.0639    0.0045 C   0  0  0  0  0  0  0  0  0  0  0  0
   -1.6357   -2.7621    3.4578 C   0  0  0  0  0  0  0  0  0  0  0  0
   -2.1250   -2.2639    4.4494 O   0  0  0  0  0  0  0  0  0  0  0  0
   -1.4740   -4.2576    3.3672 C   0  0  1  0  0  0  0  0  0  0  0  0
   -2.0180   -4.6556    2.5106 H   0  0  0  0  0  0  0  0  0  0  0  0
    0.0204   -4.6499    3.3046 C   0  0  0  0  0  0  0  0  0  0  0  0
    0.1036   -5.9246    4.1150 C   0  0  0  0  0  0  0  0  0  0  0  0
    1.0313   -6.7053    4.0885 O   0  0  0  0  0  0  0  0  0  0  0  0
   -1.0002   -6.0659    4.8691 N   0  0  0  0  0  0  0  0  0  0  0  0
   -1.9259   -4.9428    4.6760 C   0  0  0  0  0  0  0  0  0  0  0  0
   -1.2482   -7.1959    5.7679 C   0  0  0  0  0  0  0  0  0  0  0  0
   -0.6917   -6.8749    7.1564 C   0  0  0  0  0  0  0  0  0  0  0  0
   -2.1617   -0.0348   -1.2084 C   0  0  0  0  0  0  0  0  0  0  0  0
   -1.5861    0.6780   -2.0128 O   0  0  0  0  0  0  0  0  0  0  0  0
   -3.3267   -0.3442   -1.3922 O   0  0  0  0  0  1  0  0  0  0  0  0
    1.0039    1.9031    0.0027 H   0  0  0  0  0  0  0  0  0  0  0  0
   -0.5459    1.8868   -0.8726 H   0  0  0  0  0  0  0  0  0  0  0  0
   -0.5289    1.8773    0.9072 H   0  0  0  0  0  0  0  0  0  0  0  0
    0.5123   -0.3556   -0.8948 H   0  0  0  0  0  0  0  0  0  0  0  0
    0.5293   -0.3651    0.8851 H   0  0  0  0  0  0  0  0  0  0  0  0
   -2.1851    1.0509    1.2650 H   0  0  0  0  0  0  0  0  0  0  0  0
   -3.1648   -0.4357    1.2920 H   0  0  0  0  0  0  0  0  0  0  0  0
   -0.4037   -0.0502    2.5381 H   0  0  0  0  0  0  0  0  0  0  0  0
   -1.9460   -0.2537    3.4082 H   0  0  0  0  0  0  0  0  0  0  0  0
    0.4032   -2.2655    1.1525 H   0  0  0  0  0  0  0  0  0  0  0  0
   -0.7078   -3.6534    1.2817 H   0  0  0  0  0  0  0  0  0  0  0  0
   -2.4341   -2.4420    0.0372 H   0  0  0  0  0  0  0  0  0  0  0  0
   -0.9224   -2.4160   -0.9034 H   0  0  0  0  0  0  0  0  0  0  0  0
    0.3240   -4.8327    2.2739 H   0  0  0  0  0  0  0  0  0  0  0  0
    0.6381   -3.8718    3.7530 H   0  0  0  0  0  0  0  0  0  0  0  0
   -1.8530   -4.2461    5.5111 H   0  0  0  0  0  0  0  0  0  0  0  0
   -2.9480   -5.3083    4.5769 H   0  0  0  0  0  0  0  0  0  0  0  0
   -2.3211   -7.3750    5.8389 H   0  0  0  0  0  0  0  0  0  0  0  0
   -0.7564   -8.0864    5.3763 H   0  0  0  0  0  0  0  0  0  0  0  0
   -0.8762   -7.7156    7.8251 H   0  0  0  0  0  0  0  0  0  0  0  0
    0.3811   -6.6958    7.0854 H   0  0  0  0  0  0  0  0  0  0  0  0
   -1.1835   -5.9844    7.5480 H   0  0  0  0  0  0  0  0  0  0  0  0
  1  2  1  0  0  0  0
  1 23  1  0  0  0  0
  1 24  1  0  0  0  0
  1 25  1  0  0  0  0
  2  3  1  0  0  0  0
  2 26  1  0  0  0  0
  2 27  1  0  0  0  0
  3  8  1  0  0  0  0
  3  4  1  0  0  0  0
  3 20  1  6  0  0  0
  4  5  1  0  0  0  0
  4 28  1  0  0  0  0
  4 29  1  0  0  0  0
  5  6  1  0  0  0  0
  5 30  1  0  0  0  0
  5 31  1  0  0  0  0
  6  7  1  0  0  0  0
  6  9  1  0  0  0  0
  7  8  1  0  0  0  0
  7 32  1  0  0  0  0
  7 33  1  0  0  0  0
  8 34  1  0  0  0  0
  8 35  1  0  0  0  0
  9 10  2  0  0  0  0
  9 11  1  0  0  0  0
 11 12  1  6  0  0  0
 11 17  1  0  0  0  0
 11 13  1  0  0  0  0
 13 14  1  0  0  0  0
 13 36  1  0  0  0  0
 13 37  1  0  0  0  0
 14 15  2  0  0  0  0
 14 16  1  0  0  0  0
 16 17  1  0  0  0  0
 16 18  1  0  0  0  0
 17 38  1  0  0  0  0
 17 39  1  0  0  0  0
 18 19  1  0  0  0  0
 18 40  1  0  0  0  0
 18 41  1  0  0  0  0
 19 42  1  0  0  0  0
 19 43  1  0  0  0  0
 19 44  1  0  0  0  0
 20 21  2  0  0  0  0
 20 22  1  0  0  0  0
M  END
$$$$
ZINC63074887
 OpenBabel01252620473D

 35 36  0  0  0  0  0  0  0  0999 V2000
   -0.0187    1.5258    0.0104 C   0  0  0  0  0  0  0  0  0  0  0  0
    0.0021   -0.0041    0.0020 C   0  0  0  0  0  0  0  0  0  0  0  0
   -1.4416   -0.5487    0.0316 C   0  0  0  0  0  0  0  0  0  0  0  0
   -1.3275   -1.7852    0.9619 C   0  0  0  0  0  0  0  0  0  0  0  0
   -0.2755   -1.3034    1.9919 C   0  0  0  0  0  0  0  0  0  0  0  0
    0.6811   -0.5016    1.2074 N   0  0  0  0  0  0  0  0  0  0  0  0
    1.9654   -0.2642    1.5400 C   0  0  0  0  0  0  0  0  0  0  0  0
    2.6663    0.4146    0.8136 O   0  0  0  0  0  0  0  0  0  0  0  0
    2.5194   -0.8259    2.7810 C   0  0  0  0  0  0  0  0  0  0  0  0
    3.8005   -0.6961    3.3009 C   0  0  0  0  0  0  0  0  0  0  0  0
    4.0950   -1.3112    4.4822 C   0  0  0  0  0  0  0  0  0  0  0  0
    3.0976   -2.0451    5.1191 C   0  0  0  0  0  0  0  0  0  0  0  0
    1.7148   -1.8424    4.0082 S   0  0  0  0  0  0  0  0  0  0  0  0
    3.1642   -2.7866    6.3770 C   0  0  0  0  0  0  0  0  0  0  0  0
    2.0703   -3.4450    6.8348 C   0  0  0  0  0  0  0  0  0  0  0  0
    2.1347   -4.1620    8.0511 C   0  0  0  0  0  0  0  0  0  0  0  0
    3.1787   -4.1887    8.6921 O   0  0  0  0  0  0  0  0  0  0  0  0
    1.1465   -4.7569    8.4647 O   0  0  0  0  0  1  0  0  0  0  0  0
    0.7261   -0.5075   -1.2482 C   0  0  0  0  0  0  0  0  0  0  0  0
    1.0039    1.9031    0.0027 H   0  0  0  0  0  0  0  0  0  0  0  0
   -0.5459    1.8868   -0.8726 H   0  0  0  0  0  0  0  0  0  0  0  0
   -0.5289    1.8773    0.9072 H   0  0  0  0  0  0  0  0  0  0  0  0
   -2.1237    0.1895    0.4532 H   0  0  0  0  0  0  0  0  0  0  0  0
   -1.7622   -0.8457   -0.9670 H   0  0  0  0  0  0  0  0  0  0  0  0
   -2.2801   -1.9984    1.4469 H   0  0  0  0  0  0  0  0  0  0  0  0
   -0.9670   -2.6552    0.4130 H   0  0  0  0  0  0  0  0  0  0  0  0
   -0.7482   -0.6881    2.7574 H   0  0  0  0  0  0  0  0  0  0  0  0
    0.2280   -2.1563    2.4470 H   0  0  0  0  0  0  0  0  0  0  0  0
    4.5499   -0.1191    2.7794 H   0  0  0  0  0  0  0  0  0  0  0  0
    5.0815   -1.2311    4.9144 H   0  0  0  0  0  0  0  0  0  0  0  0
    4.0843   -2.8101    6.9419 H   0  0  0  0  0  0  0  0  0  0  0  0
    1.1502   -3.4215    6.2698 H   0  0  0  0  0  0  0  0  0  0  0  0
    1.7463   -0.1237   -1.2567 H   0  0  0  0  0  0  0  0  0  0  0  0
    0.7480   -1.5973   -1.2414 H   0  0  0  0  0  0  0  0  0  0  0  0
    0.1999   -0.1603   -2.1374 H   0  0  0  0  0  0  0  0  0  0  0  0
  1  2  1  0  0  0  0
  1 20  1  0  0  0  0
  1 21  1  0  0  0  0
  1 22  1  0  0  0  0
  2  6  1  0  0  0  0
  2  3  1  0  0  0  0
  2 19  1  0  0  0  0
  3  4  1  0  0  0  0
  3 23  1  0  0  0  0
  3 24  1  0  0  0  0
  4  5  1  0  0  0  0
  4 25  1  0  0  0  0
  4 26  1  0  0  0  0
  5  6  1  0  0  0  0
  5 27  1  0  0  0  0
  5 28  1  0  0  0  0
  6  7  1  0  0  0  0
  7  8  2  0  0  0  0
  7  9  1  0  0  0  0
  9 13  1  0  0  0  0
  9 10  2  0  0  0  0
 10 11  1  0  0  0  0
 10 29  1  0  0  0  0
 11 12  2  0  0  0  0
 11 30  1  0  0  0  0
 12 13  1  0  0  0  0
 12 14  1  0  0  0  0
 14 15  2  0  0  0  0
 14 31  1  0  0  0  0
 15 16  1  0  0  0  0
 15 32  1  0  0  0  0
 16 17  2  0  0  0  0
 16 18  1  0  0  0  0
 19 33  1  0  0  0  0
 19 34  1  0  0  0  0
 19 35  1  0  0  0  0
M  END
$$$$
ZINC13317583
 OpenBabel01252620473D

 49 51  0  0  0  0  0  0  0  0999 V2000
    2.4630    1.5781   -0.4635 C   0  0  0  0  0  0  0  0  0  0  0  0
    1.1608    2.2422   -0.3662 N   0  0  0  0  0  0  0  0  0  0  0  0
    0.0301    1.5090   -0.3486 C   0  0  0  0  0  0  0  0  0  0  0  0
    0.0907    0.2967   -0.4135 O   0  0  0  0  0  0  0  0  0  0  0  0
   -1.2844    2.1795   -0.2564 C   0  0  0  0  0  0  0  0  0  0  0  0
   -1.3573    3.5711   -0.1760 C   0  0  0  0  0  0  0  0  0  0  0  0
   -2.5872    4.1907   -0.0955 C   0  0  0  0  0  0  0  0  0  0  0  0
   -3.7464    3.4354   -0.0834 C   0  0  0  0  0  0  0  0  0  0  0  0
   -3.6808    2.0553   -0.1572 C   0  0  0  0  0  0  0  0  0  0  0  0
   -2.4576    1.4234   -0.2438 C   0  0  0  0  0  0  0  0  0  0  0  0
   -5.3129    4.2345    0.0258 S   0  0  0  0  0  0  0  0  0  0  0  0
   -5.1304    5.5550   -0.4664 O   0  0  0  0  0  0  0  0  0  0  0  0
   -6.2654    3.3389   -0.5308 O   0  0  0  0  0  0  0  0  0  0  0  0
   -5.6796    4.3755    1.6346 N   0  0  0  0  0  0  0  0  0  0  0  0
   -4.8438    5.1009    2.4774 C   0  0  0  0  0  0  0  0  0  0  0  0
   -4.2061    6.2437    2.0115 C   0  0  0  0  0  0  0  0  0  0  0  0
   -3.3776    6.9639    2.8464 C   0  0  0  0  0  0  0  0  0  0  0  0
   -3.1731    6.5528    4.1603 C   0  0  0  0  0  0  0  0  0  0  0  0
   -3.8002    5.4170    4.6398 C   0  0  0  0  0  0  0  0  0  0  0  0
   -4.6468    4.6838    3.8028 C   0  0  0  0  0  0  0  0  0  0  0  0
   -5.3236    3.4768    4.3076 C   0  0  0  0  0  0  0  0  0  0  0  0
   -6.0548    2.8392    3.5757 O   0  0  0  0  0  0  0  0  0  0  0  0
   -2.3303    7.2917    4.9996 N   0  0  0  0  0  0  0  0  0  0  0  0
   -3.0374    7.7130    6.2177 C   0  0  0  0  0  0  0  0  0  0  0  0
   -2.0654    8.4642    7.1315 C   0  0  0  0  0  0  0  0  0  0  0  0
   -1.5081    9.5716    6.4185 O   0  0  0  0  0  0  0  0  0  0  0  0
   -0.8116    9.1974    5.2268 C   0  0  0  0  0  0  0  0  0  0  0  0
   -1.7708    8.4536    4.2938 C   0  0  0  0  0  0  0  0  0  0  0  0
    3.2541    2.3279   -0.4637 H   0  0  0  0  0  0  0  0  0  0  0  0
    2.5951    0.9108    0.3881 H   0  0  0  0  0  0  0  0  0  0  0  0
    2.5086    1.0015   -1.3874 H   0  0  0  0  0  0  0  0  0  0  0  0
    1.1124    3.2096   -0.3144 H   0  0  0  0  0  0  0  0  0  0  0  0
   -0.4530    4.1615   -0.1807 H   0  0  0  0  0  0  0  0  0  0  0  0
   -2.6452    5.2676   -0.0377 H   0  0  0  0  0  0  0  0  0  0  0  0
   -4.5894    1.4715   -0.1473 H   0  0  0  0  0  0  0  0  0  0  0  0
   -2.4078    0.3462   -0.3020 H   0  0  0  0  0  0  0  0  0  0  0  0
   -6.4771    3.9522    1.9891 H   0  0  0  0  0  0  0  0  0  0  0  0
   -4.3596    6.5691    0.9932 H   0  0  0  0  0  0  0  0  0  0  0  0
   -2.8850    7.8519    2.4788 H   0  0  0  0  0  0  0  0  0  0  0  0
   -3.6403    5.1001    5.6598 H   0  0  0  0  0  0  0  0  0  0  0  0
   -3.8655    8.3690    5.9494 H   0  0  0  0  0  0  0  0  0  0  0  0
   -3.4212    6.8353    6.7377 H   0  0  0  0  0  0  0  0  0  0  0  0
   -1.2657    7.7923    7.4431 H   0  0  0  0  0  0  0  0  0  0  0  0
   -2.5982    8.8279    8.0101 H   0  0  0  0  0  0  0  0  0  0  0  0
    0.0246    8.5468    5.4830 H   0  0  0  0  0  0  0  0  0  0  0  0
   -0.4376   10.0910    4.7272 H   0  0  0  0  0  0  0  0  0  0  0  0
   -1.2301    8.1166    3.4094 H   0  0  0  0  0  0  0  0  0  0  0  0
   -2.5787    9.1215    3.9947 H   0  0  0  0  0  0  0  0  0  0  0  0
   -5.1318    3.0796    5.5810 O   0  0  0  0  0  1  0  0  0  0  0  0
  1  2  1  0  0  0  0
  1 29  1  0  0  0  0
  1 30  1  0  0  0  0
  1 31  1  0  0  0  0
  2  3  1  0  0  0  0
  2 32  1  0  0  0  0
  3  4  2  0  0  0  0
  3  5  1  0  0  0  0
  5 10  2  0  0  0  0
  5  6  1  0  0  0  0
  6  7  2  0  0  0  0
  6 33  1  0  0  0  0
  7  8  1  0  0  0  0
  7 34  1  0  0  0  0
  8  9  2  0  0  0  0
  8 11  1  0  0  0  0
  9 10  1  0  0  0  0
  9 35  1  0  0  0  0
 10 36  1  0  0  0  0
 11 12  2  0  0  0  0
 11 13  2  0  0  0  0
 11 14  1  0  0  0  0
 14 15  1  0  0  0  0
 14 37  1  0  0  0  0
 15 20  2  0  0  0  0
 15 16  1  0  0  0  0
 16 17  2  0  0  0  0
 16 38  1  0  0  0  0
 17 18  1  0  0  0  0
 17 39  1  0  0  0  0
 18 19  2  0  0  0  0
 18 23  1  0  0  0  0
 19 20  1  0  0  0  0
 19 40  1  0  0  0  0
 20 21  1  0  0  0  0
 21 22  2  0  0  0  0
 21 49  1  0  0  0  0
 23 28  1  0  0  0  0
 23 24  1  0  0  0  0
 24 25  1  0  0  0  0
 24 41  1  0  0  0  0
 24 42  1  0  0  0  0
 25 26  1  0  0  0  0
 25 43  1  0  0  0  0
 25 44  1  0  0  0  0
 26 27  1  0  0  0  0
 27 28  1  0  0  0  0
 27 45  1  0  0  0  0
 27 46  1  0  0  0  0
 28 47  1  0  0  0  0
 28 48  1  0  0  0  0
M  END
$$$$
ZINC40100695
 OpenBabel01252620473D

 54 56  0  0  1  0  0  0  0  0999 V2000
    0.6864    2.0149   -4.1578 C   0  0  0  0  0  0  0  0  0  0  0  0
    0.3528    0.5584   -4.4870 C   0  0  0  0  0  0  0  0  0  0  0  0
    1.3843   -0.2922   -3.9825 O   0  0  0  0  0  0  0  0  0  0  0  0
    1.2406   -1.6273   -4.1922 C   0  0  0  0  0  0  0  0  0  0  0  0
    0.1307   -2.1071   -4.8754 C   0  0  0  0  0  0  0  0  0  0  0  0
   -0.0213   -3.4644   -5.0914 C   0  0  0  0  0  0  0  0  0  0  0  0
    0.9290   -4.3516   -4.6295 C   0  0  0  0  0  0  0  0  0  0  0  0
    2.0487   -3.8787   -3.9419 C   0  0  0  0  0  0  0  0  0  0  0  0
    2.2034   -2.5077   -3.7296 C   0  0  0  0  0  0  0  0  0  0  0  0
    3.0695   -4.8264   -3.4452 C   0  0  0  0  0  0  0  0  0  0  0  0
    4.0951   -4.4074   -2.9424 O   0  0  0  0  0  0  0  0  0  0  0  0
    2.8457   -6.2705   -3.5587 C   0  0  0  0  0  0  0  0  0  0  0  0
    3.5474   -7.1385   -4.3247 C   0  0  0  0  0  0  0  0  0  0  0  0
    2.9960   -8.4985   -4.1466 C   0  0  0  0  0  0  0  0  0  0  0  0
    3.4112   -9.4972   -4.7000 O   0  0  0  0  0  0  0  0  0  0  0  0
    1.9667   -8.4668   -3.2808 N   0  0  0  0  0  0  0  0  0  0  0  0
    1.7916   -7.0785   -2.8384 C   0  0  1  0  0  0  0  0  0  0  0  0
    0.7973   -6.7236   -3.1095 H   0  0  0  0  0  0  0  0  0  0  0  0
    1.9901   -6.9775   -1.3480 C   0  0  0  0  0  0  0  0  0  0  0  0
    2.9929   -7.7045   -0.7337 C   0  0  0  0  0  0  0  0  0  0  0  0
    3.1757   -7.6132    0.6332 C   0  0  0  0  0  0  0  0  0  0  0  0
    2.3553   -6.7935    1.3875 C   0  0  0  0  0  0  0  0  0  0  0  0
    1.3514   -6.0652    0.7724 C   0  0  0  0  0  0  0  0  0  0  0  0
    1.1732   -6.1539   -0.5967 C   0  0  0  0  0  0  0  0  0  0  0  0
    0.3206   -5.0367    1.7176 Cl  0  0  0  0  0  0  0  0  0  0  0  0
    2.5841   -6.6788    3.1046 Cl  0  0  0  0  0  0  0  0  0  0  0  0
    1.1657   -9.6159   -2.8515 C   0  0  0  0  0  0  0  0  0  0  0  0
   -0.0086   -9.8069   -3.8135 C   0  0  0  0  0  0  0  0  0  0  0  0
    0.4872  -10.1650   -5.1051 O   0  0  0  0  0  0  0  0  0  0  0  0
   -0.5244  -10.2615   -6.1097 C   0  0  0  0  0  0  0  0  0  0  0  0
    0.0981  -10.7645   -7.4137 C   0  0  0  0  0  0  0  0  0  0  0  0
    0.5716  -12.1004   -7.2312 O   0  0  0  0  0  0  0  0  0  0  0  0
    4.5874   -6.8130   -5.1262 O   0  5  0  0  0  0  0  0  0  0  0  0
    0.7605    2.1353   -3.0770 H   0  0  0  0  0  0  0  0  0  0  0  0
    1.6367    2.2832   -4.6193 H   0  0  0  0  0  0  0  0  0  0  0  0
   -0.1004    2.6637   -4.5426 H   0  0  0  0  0  0  0  0  0  0  0  0
   -0.5975    0.2901   -4.0255 H   0  0  0  0  0  0  0  0  0  0  0  0
    0.2787    0.4380   -5.5678 H   0  0  0  0  0  0  0  0  0  0  0  0
   -0.6167   -1.4175   -5.2390 H   0  0  0  0  0  0  0  0  0  0  0  0
   -0.8869   -3.8313   -5.6231 H   0  0  0  0  0  0  0  0  0  0  0  0
    0.8069   -5.4112   -4.7993 H   0  0  0  0  0  0  0  0  0  0  0  0
    3.0692   -2.1354   -3.2020 H   0  0  0  0  0  0  0  0  0  0  0  0
    3.6336   -8.3445   -1.3222 H   0  0  0  0  0  0  0  0  0  0  0  0
    3.9588   -8.1819    1.1125 H   0  0  0  0  0  0  0  0  0  0  0  0
    0.3928   -5.5829   -1.0778 H   0  0  0  0  0  0  0  0  0  0  0  0
    1.7861  -10.5121   -2.8529 H   0  0  0  0  0  0  0  0  0  0  0  0
    0.7859   -9.4384   -1.8453 H   0  0  0  0  0  0  0  0  0  0  0  0
   -0.6581  -10.5991   -3.4412 H   0  0  0  0  0  0  0  0  0  0  0  0
   -0.5737   -8.8777   -3.8861 H   0  0  0  0  0  0  0  0  0  0  0  0
   -1.2959  -10.9587   -5.7828 H   0  0  0  0  0  0  0  0  0  0  0  0
   -0.9681   -9.2795   -6.2740 H   0  0  0  0  0  0  0  0  0  0  0  0
   -0.6525  -10.7499   -8.2040 H   0  0  0  0  0  0  0  0  0  0  0  0
    0.9309  -10.1186   -7.6916 H   0  0  0  0  0  0  0  0  0  0  0  0
    0.9797  -12.4841   -8.0194 H   0  0  0  0  0  0  0  0  0  0  0  0
  1  2  1  0  0  0  0
  1 34  1  0  0  0  0
  1 35  1  0  0  0  0
  1 36  1  0  0  0  0
  2  3  1  0  0  0  0
  2 37  1  0  0  0  0
  2 38  1  0  0  0  0
  3  4  1  0  0  0  0
  4  9  2  0  0  0  0
  4  5  1  0  0  0  0
  5  6  2  0  0  0  0
  5 39  1  0  0  0  0
  6  7  1  0  0  0  0
  6 40  1  0  0  0  0
  7  8  2  0  0  0  0
  7 41  1  0  0  0  0
  8  9  1  0  0  0  0
  8 10  1  0  0  0  0
  9 42  1  0  0  0  0
 10 11  2  0  0  0  0
 10 12  1  0  0  0  0
 12 17  1  0  0  0  0
 12 13  2  0  0  0  0
 13 14  1  0  0  0  0
 13 33  1  0  0  0  0
 14 15  2  0  0  0  0
 14 16  1  0  0  0  0
 16 17  1  0  0  0  0
 16 27  1  0  0  0  0
 17 18  1  6  0  0  0
 17 19  1  0  0  0  0
 19 24  2  0  0  0  0
 19 20  1  0  0  0  0
 20 21  2  0  0  0  0
 20 43  1  0  0  0  0
 21 22  1  0  0  0  0
 21 44  1  0  0  0  0
 22 23  2  0  0  0  0
 22 26  1  0  0  0  0
 23 24  1  0  0  0  0
 23 25  1  0  0  0  0
 24 45  1  0  0  0  0
 27 28  1  0  0  0  0
 27 46  1  0  0  0  0
 27 47  1  0  0  0  0
 28 29  1  0  0  0  0
 28 48  1  0  0  0  0
 28 49  1  0  0  0  0
 29 30  1  0  0  0  0
 30 31  1  0  0  0  0
 30 50  1  0  0  0  0
 30 51  1  0  0  0  0
 31 32  1  0  0  0  0
 31 52  1  0  0  0  0
 31 53  1  0  0  0  0
 32 54  1  0  0  0  0
M  CHG  1  33  -1
M  END
$$$$
ZINC31168513
 OpenBabel01252620473D

 49 50  0  0  1  0  0  0  0  0999 V2000
   -0.2066    1.4190   -0.1613 C   0  0  0  0  0  0  0  0  0  0  0  0
   -0.1865   -0.1047   -0.0503 C   0  0  1  0  0  0  0  0  0  0  0  0
   -1.2405   -0.4119    0.1462 H   0  0  0  0  0  0  0  0  0  0  0  0
    0.2226   -0.7607   -1.3522 C   0  0  0  0  0  0  0  0  0  0  0  0
    1.5046   -0.2252   -1.9672 C   0  0  0  0  0  0  0  0  0  0  0  0
    2.7053   -1.0156   -1.5553 C   0  0  0  0  0  0  0  0  0  0  0  0
    2.6301   -2.3465   -1.4920 C   0  0  0  0  0  0  0  0  0  0  0  0
    4.0035   -0.3950   -1.2689 C   0  0  0  0  0  0  0  0  0  0  0  0
    4.6792   -0.5749   -0.1038 C   0  0  0  0  0  0  0  0  0  0  0  0
    4.2049   -1.2124    1.0455 C   0  0  0  0  0  0  0  0  0  0  0  0
    3.0373   -0.9996    1.6398 C   0  0  0  0  0  0  0  0  0  0  0  0
    2.0414    0.0017    1.1248 C   0  0  0  0  0  0  0  0  0  0  0  0
    0.6186   -0.5424    1.1667 C   0  0  1  0  0  0  0  0  0  0  0  0
   -0.0725    0.0206    2.4252 C   0  0  0  0  0  0  0  0  0  0  0  0
    0.6216   -2.0681    1.2787 C   0  0  0  0  0  0  0  0  0  0  0  0
   -0.8196   -2.5816    1.2869 C   0  0  0  0  0  0  0  0  0  0  0  0
   -0.8168   -4.0843    1.4006 C   0  0  0  0  0  0  0  0  0  0  0  0
   -0.9380   -4.7740    2.5329 C   0  0  0  0  0  0  0  0  0  0  0  0
   -0.8815   -6.2371    2.1620 C   0  0  0  0  0  0  0  0  0  0  0  0
   -0.7203   -6.2870    0.7407 O   0  0  0  0  0  0  0  0  0  0  0  0
   -0.6865   -5.0225    0.2814 C   0  0  0  0  0  0  0  0  0  0  0  0
   -0.5631   -4.7057   -0.8854 O   0  0  0  0  0  0  0  0  0  0  0  0
    4.6082    0.4675   -2.3080 C   0  0  0  0  0  0  0  0  0  0  0  0
    5.6905    1.0027   -2.1055 O   0  0  0  0  0  0  0  0  0  0  0  0
    4.0261    0.6460   -3.3702 O   0  0  0  0  0  1  0  0  0  0  0  0
    0.8027    1.7825   -0.3547 H   0  0  0  0  0  0  0  0  0  0  0  0
   -0.8625    1.7150   -0.9800 H   0  0  0  0  0  0  0  0  0  0  0  0
   -0.5743    1.8465    0.7715 H   0  0  0  0  0  0  0  0  0  0  0  0
    0.2466   -1.8449   -1.2593 H   0  0  0  0  0  0  0  0  0  0  0  0
   -0.5943   -0.5673   -2.0861 H   0  0  0  0  0  0  0  0  0  0  0  0
    1.4151   -0.2860   -3.0667 H   0  0  0  0  0  0  0  0  0  0  0  0
    1.6630    0.8261   -1.7282 H   0  0  0  0  0  0  0  0  0  0  0  0
    1.7053   -2.8474   -1.7377 H   0  0  0  0  0  0  0  0  0  0  0  0
    3.4939   -2.9227   -1.1952 H   0  0  0  0  0  0  0  0  0  0  0  0
    5.7070   -0.1765   -0.0612 H   0  0  0  0  0  0  0  0  0  0  0  0
    4.8582   -1.9671    1.5092 H   0  0  0  0  0  0  0  0  0  0  0  0
    2.8200   -1.5467    2.5555 H   0  0  0  0  0  0  0  0  0  0  0  0
    2.0910    0.8918    1.7709 H   0  0  0  0  0  0  0  0  0  0  0  0
    2.3080    0.3115    0.1206 H   0  0  0  0  0  0  0  0  0  0  0  0
   -1.0886   -0.3692    2.4868 H   0  0  0  0  0  0  0  0  0  0  0  0
    0.4862   -0.2797    3.3116 H   0  0  0  0  0  0  0  0  0  0  0  0
   -0.1037    1.1086    2.3666 H   0  0  0  0  0  0  0  0  0  0  0  0
    1.1541   -2.4938    0.4282 H   0  0  0  0  0  0  0  0  0  0  0  0
    1.1179   -2.3636    2.2030 H   0  0  0  0  0  0  0  0  0  0  0  0
   -1.3529   -2.1540    2.1359 H   0  0  0  0  0  0  0  0  0  0  0  0
   -1.3152   -2.2882    0.3615 H   0  0  0  0  0  0  0  0  0  0  0  0
   -1.0538   -4.3657    3.5260 H   0  0  0  0  0  0  0  0  0  0  0  0
   -0.0330   -6.7148    2.6517 H   0  0  0  0  0  0  0  0  0  0  0  0
   -1.8085   -6.7325    2.4510 H   0  0  0  0  0  0  0  0  0  0  0  0
  1  2  1  0  0  0  0
  1 26  1  0  0  0  0
  1 27  1  0  0  0  0
  1 28  1  0  0  0  0
  2  3  1  1  0  0  0
  2 13  1  0  0  0  0
  2  4  1  0  0  0  0
  4  5  1  0  0  0  0
  4 29  1  0  0  0  0
  4 30  1  0  0  0  0
  5  6  1  0  0  0  0
  5 31  1  0  0  0  0
  5 32  1  0  0  0  0
  6  7  2  0  0  0  0
  6  8  1  0  0  0  0
  7 33  1  0  0  0  0
  7 34  1  0  0  0  0
  8  9  2  0  0  0  0
  8 23  1  0  0  0  0
  9 10  1  0  0  0  0
  9 35  1  0  0  0  0
 10 11  2  0  0  0  0
 10 36  1  0  0  0  0
 11 12  1  0  0  0  0
 11 37  1  0  0  0  0
 12 13  1  0  0  0  0
 12 38  1  0  0  0  0
 12 39  1  0  0  0  0
 13 14  1  1  0  0  0
 13 15  1  0  0  0  0
 14 40  1  0  0  0  0
 14 41  1  0  0  0  0
 14 42  1  0  0  0  0
 15 16  1  0  0  0  0
 15 43  1  0  0  0  0
 15 44  1  0  0  0  0
 16 17  1  0  0  0  0
 16 45  1  0  0  0  0
 16 46  1  0  0  0  0
 17 21  1  0  0  0  0
 17 18  2  0  0  0  0
 18 19  1  0  0  0  0
 18 47  1  0  0  0  0
 19 20  1  0  0  0  0
 19 48  1  0  0  0  0
 19 49  1  0  0  0  0
 20 21  1  0  0  0  0
 21 22  2  0  0  0  0
 23 24  2  0  0  0  0
 23 25  1  0  0  0  0
M  END
$$$$
ZINC49593351
 OpenBabel01252620473D

 31 31  0  0  0  0  0  0  0  0999 V2000
   -0.0173    1.4248    0.0099 C   0  0  0  0  0  0  0  0  0  0  0  0
    0.0021   -0.0041    0.0020 O   0  0  0  0  0  0  0  0  0  0  0  0
   -1.1855   -0.6297    0.0100 C   0  0  0  0  0  0  0  0  0  0  0  0
   -2.2076    0.0145    0.0232 O   0  0  0  0  0  0  0  0  0  0  0  0
   -1.2439   -2.1355    0.0025 C   0  0  0  0  0  0  0  0  0  0  0  0
   -2.9763   -2.6735    0.0161 S   0  0  0  0  0  0  0  0  0  0  0  0
   -3.5817   -2.3426    1.2584 O   0  0  0  0  0  0  0  0  0  0  0  0
   -3.6053   -2.3294   -1.2107 O   0  0  0  0  0  0  0  0  0  0  0  0
   -2.9082   -4.3280    0.0066 N   0  0  0  0  0  2  0  0  0  0  0  0
   -4.0883   -5.0758    0.0138 C   0  0  0  0  0  0  0  0  0  0  0  0
   -5.3202   -4.4303    0.0233 C   0  0  0  0  0  0  0  0  0  0  0  0
   -6.4919   -5.1643    0.0305 C   0  0  0  0  0  0  0  0  0  0  0  0
   -6.4484   -6.5430    0.0279 C   0  0  0  0  0  0  0  0  0  0  0  0
   -5.2151   -7.2033    0.0180 C   0  0  0  0  0  0  0  0  0  0  0  0
   -4.0310   -6.4601    0.0059 C   0  0  0  0  0  0  0  0  0  0  0  0
   -5.1645   -8.6736    0.0157 C   0  0  0  0  0  0  0  0  0  0  0  0
   -6.3107   -9.3892    0.0232 C   0  0  0  0  0  0  0  0  0  0  0  0
   -6.2619  -10.8043    0.0210 C   0  0  0  0  0  0  0  0  0  0  0  0
   -5.1807  -11.3798    0.0123 O   0  0  0  0  0  0  0  0  0  0  0  0
   -7.3010  -11.4529    0.0278 O   0  0  0  0  0  1  0  0  0  0  0  0
    1.0053    1.8021    0.0021 H   0  0  0  0  0  0  0  0  0  0  0  0
   -0.5445    1.7859   -0.8732 H   0  0  0  0  0  0  0  0  0  0  0  0
   -0.5275    1.7763    0.9067 H   0  0  0  0  0  0  0  0  0  0  0  0
   -0.7531   -2.5137   -0.8943 H   0  0  0  0  0  0  0  0  0  0  0  0
   -0.7361   -2.5233    0.8856 H   0  0  0  0  0  0  0  0  0  0  0  0
   -5.3618   -3.3511    0.0253 H   0  0  0  0  0  0  0  0  0  0  0  0
   -7.4449   -4.6562    0.0385 H   0  0  0  0  0  0  0  0  0  0  0  0
   -7.3661   -7.1124    0.0339 H   0  0  0  0  0  0  0  0  0  0  0  0
   -3.0754   -6.9630   -0.0056 H   0  0  0  0  0  0  0  0  0  0  0  0
   -4.2111   -9.1810    0.0081 H   0  0  0  0  0  0  0  0  0  0  0  0
   -7.2640   -8.8817    0.0309 H   0  0  0  0  0  0  0  0  0  0  0  0
  1  2  1  0  0  0  0
  1 21  1  0  0  0  0
  1 22  1  0  0  0  0
  1 23  1  0  0  0  0
  2  3  1  0  0  0  0
  3  4  2  0  0  0  0
  3  5  1  0  0  0  0
  5  6  1  0  0  0  0
  5 24  1  0  0  0  0
  5 25  1  0  0  0  0
  6  7  2  0  0  0  0
  6  8  2  0  0  0  0
  6  9  1  0  0  0  0
  9 10  1  0  0  0  0
 10 15  2  0  0  0  0
 10 11  1  0  0  0  0
 11 12  2  0  0  0  0
 11 26  1  0  0  0  0
 12 13  1  0  0  0  0
 12 27  1  0  0  0  0
 13 14  2  0  0  0  0
 13 28  1  0  0  0  0
 14 15  1  0  0  0  0
 14 16  1  0  0  0  0
 15 29  1  0  0  0  0
 16 17  2  0  0  0  0
 16 30  1  0  0  0  0
 17 18  1  0  0  0  0
 17 31  1  0  0  0  0
 18 19  2  0  0  0  0
 18 20  1  0  0  0  0
M  END
$$$$
ZINC16905849
 OpenBabel01252620473D

 37 39  0  0  0  0  0  0  0  0999 V2000
    3.0365    3.2290    1.5879 C   0  0  0  0  0  0  0  0  0  0  0  0
    2.3413    4.0329    0.6983 C   0  0  0  0  0  0  0  0  0  0  0  0
    1.6697    3.4766   -0.3716 C   0  0  0  0  0  0  0  0  0  0  0  0
    1.6771    2.0948   -0.5578 C   0  0  0  0  0  0  0  0  0  0  0  0
    2.3849    1.2748    0.3479 C   0  0  0  0  0  0  0  0  0  0  0  0
    3.0628    1.8603    1.4209 C   0  0  0  0  0  0  0  0  0  0  0  0
    2.4090   -0.1812    0.1637 C   0  0  0  0  0  0  0  0  0  0  0  0
    3.5642   -0.8692    0.3468 C   0  0  0  0  0  0  0  0  0  0  0  0
    4.9374   -0.3646    0.5774 C   0  0  0  0  0  0  0  0  0  0  0  0
    5.1816    0.8260    0.6295 O   0  0  0  0  0  0  0  0  0  0  0  0
    5.8836   -1.2763    0.7275 N   0  0  0  0  0  0  0  0  0  0  0  0
    5.6093   -2.5948    0.6623 C   0  0  0  0  0  0  0  0  0  0  0  0
    6.6891   -3.9136    0.8228 S   0  0  0  0  0  0  0  0  0  0  0  0
    3.8487   -2.6339    0.3681 S   0  0  0  0  0  0  0  0  0  0  0  0
    7.2028   -0.8623    0.9535 N   0  0  0  0  0  0  0  0  0  0  0  0
    8.1114   -0.9349   -0.0393 C   0  0  0  0  0  0  0  0  0  0  0  0
    7.7862   -1.3596   -1.1310 O   0  0  0  0  0  0  0  0  0  0  0  0
    9.5021   -0.4985    0.1990 C   0  0  0  0  0  0  0  0  0  0  0  0
    9.8795   -0.0101    1.4518 C   0  0  0  0  0  0  0  0  0  0  0  0
   11.1793    0.3952    1.6678 C   0  0  0  0  0  0  0  0  0  0  0  0
   12.1117    0.3192    0.6471 C   0  0  0  0  0  0  0  0  0  0  0  0
   11.7481   -0.1627   -0.5962 C   0  0  0  0  0  0  0  0  0  0  0  0
   10.4489   -0.5777   -0.8269 C   0  0  0  0  0  0  0  0  0  0  0  0
   10.0950   -1.0540   -2.0406 F   0  0  0  0  0  0  0  0  0  0  0  0
    0.9560    1.4947   -1.6956 C   0  0  0  0  0  0  0  0  0  0  0  0
    1.0486    0.3029   -1.9130 O   0  0  0  0  0  0  0  0  0  0  0  0
    3.5612    3.6778    2.4184 H   0  0  0  0  0  0  0  0  0  0  0  0
    2.3292    5.1034    0.8405 H   0  0  0  0  0  0  0  0  0  0  0  0
    1.1348    4.1115   -1.0624 H   0  0  0  0  0  0  0  0  0  0  0  0
    3.6072    1.2412    2.1186 H   0  0  0  0  0  0  0  0  0  0  0  0
    1.5074   -0.7050   -0.1176 H   0  0  0  0  0  0  0  0  0  0  0  0
    7.4623   -0.5235    1.8246 H   0  0  0  0  0  0  0  0  0  0  0  0
    9.1542    0.0504    2.2498 H   0  0  0  0  0  0  0  0  0  0  0  0
   11.4713    0.7729    2.6365 H   0  0  0  0  0  0  0  0  0  0  0  0
   13.1283    0.6384    0.8232 H   0  0  0  0  0  0  0  0  0  0  0  0
   12.4807   -0.2196   -1.3876 H   0  0  0  0  0  0  0  0  0  0  0  0
    0.1989    2.2691   -2.4975 O   0  0  0  0  0  1  0  0  0  0  0  0
  1  6  2  0  0  0  0
  1  2  1  0  0  0  0
  1 27  1  0  0  0  0
  2  3  2  0  0  0  0
  2 28  1  0  0  0  0
  3  4  1  0  0  0  0
  3 29  1  0  0  0  0
  4  5  2  0  0  0  0
  4 25  1  0  0  0  0
  5  6  1  0  0  0  0
  5  7  1  0  0  0  0
  6 30  1  0  0  0  0
  7  8  2  0  0  0  0
  7 31  1  0  0  0  0
  8 14  1  0  0  0  0
  8  9  1  0  0  0  0
  9 10  2  0  0  0  0
  9 11  1  0  0  0  0
 11 12  1  0  0  0  0
 11 15  1  0  0  0  0
 12 13  2  0  0  0  0
 12 14  1  0  0  0  0
 15 16  1  0  0  0  0
 15 32  1  0  0  0  0
 16 17  2  0  0  0  0
 16 18  1  0  0  0  0
 18 23  2  0  0  0  0
 18 19  1  0  0  0  0
 19 20  2  0  0  0  0
 19 33  1  0  0  0  0
 20 21  1  0  0  0  0
 20 34  1  0  0  0  0
 21 22  2  0  0  0  0
 21 35  1  0  0  0  0
 22 23  1  0  0  0  0
 22 36  1  0  0  0  0
 23 24  1  0  0  0  0
 25 26  2  0  0  0  0
 25 37  1  0  0  0  0
M  END
$$$$
ZINC36881894
 OpenBabel01252620473D

 26 26  0  0  0  0  0  0  0  0999 V2000
   -0.0167    1.3778    0.0096 C   0  0  0  0  0  0  0  0  0  0  0  0
    1.1662    2.0889    0.0021 C   0  0  0  0  0  0  0  0  0  0  0  0
    2.3875    1.4122   -0.0132 C   0  0  0  0  0  0  0  0  0  0  0  0
    2.4064    0.0169   -0.0209 C   0  0  0  0  0  0  0  0  0  0  0  0
    1.2126   -0.6877   -0.0133 C   0  0  0  0  0  0  0  0  0  0  0  0
    0.0021   -0.0041    0.0020 C   0  0  0  0  0  0  0  0  0  0  0  0
    1.2259   -2.0846   -0.0214 N   0  0  0  0  0  2  0  0  0  0  0  0
   -0.2002   -2.9263   -0.0123 S   0  0  0  0  0  0  0  0  0  0  0  0
   -0.8068   -2.5985    1.2302 O   0  0  0  0  0  0  0  0  0  0  0  0
   -0.8309   -2.5844   -1.2389 O   0  0  0  0  0  0  0  0  0  0  0  0
    0.2893   -4.6730   -0.0270 C   0  0  0  0  0  0  0  0  0  0  0  0
   -0.9621   -5.5533   -0.0199 C   0  0  0  0  0  0  0  0  0  0  0  0
   -0.5492   -7.0265   -0.0323 C   0  0  0  0  0  0  0  0  0  0  0  0
   -2.0238   -8.0640   -0.0239 Cl  0  0  0  0  0  0  0  0  0  0  0  0
    3.6163    2.1475   -0.0214 C   0  0  0  0  0  0  0  0  0  0  0  0
    4.5911    2.7308   -0.0280 N   0  0  0  0  0  0  0  0  0  0  0  0
   -0.9602    1.9031    0.0260 H   0  0  0  0  0  0  0  0  0  0  0  0
    1.1472    3.1688    0.0078 H   0  0  0  0  0  0  0  0  0  0  0  0
    3.3479   -0.5122   -0.0331 H   0  0  0  0  0  0  0  0  0  0  0  0
   -0.9269   -0.5549    0.0083 H   0  0  0  0  0  0  0  0  0  0  0  0
    0.8734   -4.8791   -0.9239 H   0  0  0  0  0  0  0  0  0  0  0  0
    0.8907   -4.8892    0.8559 H   0  0  0  0  0  0  0  0  0  0  0  0
   -1.5462   -5.3473    0.8771 H   0  0  0  0  0  0  0  0  0  0  0  0
   -1.5635   -5.3371   -0.9028 H   0  0  0  0  0  0  0  0  0  0  0  0
    0.0349   -7.2326   -0.9292 H   0  0  0  0  0  0  0  0  0  0  0  0
    0.0522   -7.2428    0.8506 H   0  0  0  0  0  0  0  0  0  0  0  0
  1  6  2  0  0  0  0
  1  2  1  0  0  0  0
  1 17  1  0  0  0  0
  2  3  2  0  0  0  0
  2 18  1  0  0  0  0
  3  4  1  0  0  0  0
  3 15  1  0  0  0  0
  4  5  2  0  0  0  0
  4 19  1  0  0  0  0
  5  6  1  0  0  0  0
  5  7  1  0  0  0  0
  6 20  1  0  0  0  0
  7  8  1  0  0  0  0
  8  9  2  0  0  0  0
  8 10  2  0  0  0  0
  8 11  1  0  0  0  0
 11 12  1  0  0  0  0
 11 21  1  0  0  0  0
 11 22  1  0  0  0  0
 12 13  1  0  0  0  0
 12 23  1  0  0  0  0
 12 24  1  0  0  0  0
 13 14  1  0  0  0  0
 13 25  1  0  0  0  0
 13 26  1  0  0  0  0
 15 16  3  0  0  0  0
M  END
$$$$
ZINC33474871
 OpenBabel01252620473D

 67 70  0  0  1  0  0  0  0  0999 V2000
    4.9327   -7.4336    2.6967 C   0  0  0  0  0  0  0  0  0  0  0  0
    4.1164   -6.1404    2.6503 C   0  0  0  0  0  0  0  0  0  0  0  0
    4.8201   -5.1252    1.7475 C   0  0  0  0  0  0  0  0  0  0  0  0
    4.0577   -3.9174    1.7042 O   0  0  0  0  0  0  0  0  0  0  0  0
    4.5477   -2.9054    0.9407 C   0  0  0  0  0  0  0  0  0  0  0  0
    5.7396   -3.0737    0.2472 C   0  0  0  0  0  0  0  0  0  0  0  0
    6.2443   -2.0483   -0.5317 C   0  0  0  0  0  0  0  0  0  0  0  0
    5.5673   -0.8503   -0.6263 C   0  0  0  0  0  0  0  0  0  0  0  0
    4.3666   -0.6705    0.0677 C   0  0  0  0  0  0  0  0  0  0  0  0
    3.8616   -1.7065    0.8588 C   0  0  0  0  0  0  0  0  0  0  0  0
    3.6398    0.6077   -0.0298 C   0  0  0  0  0  0  0  0  0  0  0  0
    2.2980    0.6156   -0.3500 C   0  0  0  0  0  0  0  0  0  0  0  0
    1.3729    1.8105   -0.3559 C   0  0  2  0  0  0  0  0  0  0  0  0
    1.3030    2.2820    0.6355 H   0  0  0  0  0  0  0  0  0  0  0  0
    0.0533    1.3180   -0.7616 N   0  0  0  0  0  0  0  0  0  0  0  0
    0.1291   -0.0050   -0.9827 C   0  0  0  0  0  0  0  0  0  0  0  0
   -0.7981   -0.7062   -1.3327 O   0  0  0  0  0  0  0  0  0  0  0  0
    1.5161   -0.4853   -0.7367 C   0  0  0  0  0  0  0  0  0  0  0  0
    1.9056   -1.6332   -0.8513 O   0  5  0  0  0  0  0  0  0  0  0  0
   -1.1522    2.1373   -0.9084 C   0  0  0  0  0  0  0  0  0  0  0  0
   -1.9095    2.1731    0.4205 C   0  0  0  0  0  0  0  0  0  0  0  0
   -3.1686    3.0288    0.2672 C   0  0  0  0  0  0  0  0  0  0  0  0
   -3.8937    3.0630    1.5397 N   0  0  0  0  0  0  0  0  0  0  0  0
   -3.7253    3.9752    2.5462 C   0  0  0  0  0  0  0  0  0  0  0  0
   -4.5870    3.6390    3.5250 C   0  0  0  0  0  0  0  0  0  0  0  0
   -5.2631    2.5511    3.1270 N   0  0  0  0  0  0  0  0  0  0  0  0
   -4.8572    2.2039    1.9363 C   0  0  0  0  0  0  0  0  0  0  0  0
    1.8650    2.8392   -1.3410 C   0  0  0  0  0  0  0  0  0  0  0  0
    1.6601    2.6512   -2.6954 C   0  0  0  0  0  0  0  0  0  0  0  0
    2.1052    3.5955   -3.6002 C   0  0  0  0  0  0  0  0  0  0  0  0
    2.7684    4.7277   -3.1496 C   0  0  0  0  0  0  0  0  0  0  0  0
    2.9777    4.9113   -1.7905 C   0  0  0  0  0  0  0  0  0  0  0  0
    2.5256    3.9668   -0.8894 C   0  0  0  0  0  0  0  0  0  0  0  0
    3.2118    5.6556   -4.0380 O   0  0  0  0  0  0  0  0  0  0  0  0
    2.9611    5.4009   -5.4215 C   0  0  0  0  0  0  0  0  0  0  0  0
    3.5202    6.5292   -6.2494 C   0  0  0  0  0  0  0  0  0  0  0  0
    4.2089    6.2679   -7.3327 C   0  0  0  0  0  0  0  0  0  0  0  0
    4.2871    1.7710    0.1942 O   0  0  0  0  0  0  0  0  0  0  0  0
    4.4267   -8.1635    3.3458 H   0  0  0  0  0  0  0  0  0  0  0  0
    5.9351   -7.2203    3.0964 H   0  0  0  0  0  0  0  0  0  0  0  0
    5.0231   -7.8467    1.6812 H   0  0  0  0  0  0  0  0  0  0  0  0
    3.1140   -6.3537    2.2506 H   0  0  0  0  0  0  0  0  0  0  0  0
    4.0259   -5.7273    3.6657 H   0  0  0  0  0  0  0  0  0  0  0  0
    5.8225   -4.9120    2.1472 H   0  0  0  0  0  0  0  0  0  0  0  0
    4.9106   -5.5383    0.7320 H   0  0  0  0  0  0  0  0  0  0  0  0
    6.2747   -4.0092    0.3170 H   0  0  0  0  0  0  0  0  0  0  0  0
    7.1715   -2.1862   -1.0680 H   0  0  0  0  0  0  0  0  0  0  0  0
    5.9639   -0.0521   -1.2361 H   0  0  0  0  0  0  0  0  0  0  0  0
    2.9372   -1.5731    1.4011 H   0  0  0  0  0  0  0  0  0  0  0  0
   -0.8675    3.1602   -1.1959 H   0  0  0  0  0  0  0  0  0  0  0  0
   -1.7976    1.7039   -1.6866 H   0  0  0  0  0  0  0  0  0  0  0  0
   -2.1941    1.1502    0.7080 H   0  0  0  0  0  0  0  0  0  0  0  0
   -1.2642    2.6065    1.1988 H   0  0  0  0  0  0  0  0  0  0  0  0
   -2.8840    4.0517   -0.0202 H   0  0  0  0  0  0  0  0  0  0  0  0
   -3.8140    2.5954   -0.5110 H   0  0  0  0  0  0  0  0  0  0  0  0
   -3.0346    4.8055    2.5537 H   0  0  0  0  0  0  0  0  0  0  0  0
   -4.7118    4.1549    4.4656 H   0  0  0  0  0  0  0  0  0  0  0  0
   -5.2285    1.3666    1.3640 H   0  0  0  0  0  0  0  0  0  0  0  0
    1.1477    1.7675   -3.0460 H   0  0  0  0  0  0  0  0  0  0  0  0
    1.9411    3.4503   -4.6577 H   0  0  0  0  0  0  0  0  0  0  0  0
    3.4940    5.7916   -1.4372 H   0  0  0  0  0  0  0  0  0  0  0  0
    2.6880    4.1094    0.1688 H   0  0  0  0  0  0  0  0  0  0  0  0
    3.4444    4.4571   -5.7140 H   0  0  0  0  0  0  0  0  0  0  0  0
    1.8767    5.3251   -5.5898 H   0  0  0  0  0  0  0  0  0  0  0  0
    3.3500    7.5722   -5.9441 H   0  0  0  0  0  0  0  0  0  0  0  0
    4.6170    7.0915   -7.9370 H   0  0  0  0  0  0  0  0  0  0  0  0
    4.3791    5.2249   -7.6380 H   0  0  0  0  0  0  0  0  0  0  0  0
  1  2  1  0  0  0  0
  1 39  1  0  0  0  0
  1 40  1  0  0  0  0
  1 41  1  0  0  0  0
  2  3  1  0  0  0  0
  2 42  1  0  0  0  0
  2 43  1  0  0  0  0
  3  4  1  0  0  0  0
  3 44  1  0  0  0  0
  3 45  1  0  0  0  0
  4  5  1  0  0  0  0
  5 10  2  0  0  0  0
  5  6  1  0  0  0  0
  6  7  2  0  0  0  0
  6 46  1  0  0  0  0
  7  8  1  0  0  0  0
  7 47  1  0  0  0  0
  8  9  2  0  0  0  0
  8 48  1  0  0  0  0
  9 10  1  0  0  0  0
  9 11  1  0  0  0  0
 10 49  1  0  0  0  0
 11 12  1  0  0  0  0
 11 38  2  0  0  0  0
 12 18  2  0  0  0  0
 12 13  1  0  0  0  0
 13 14  1  1  0  0  0
 13 15  1  0  0  0  0
 13 28  1  0  0  0  0
 15 16  1  0  0  0  0
 15 20  1  0  0  0  0
 16 17  2  0  0  0  0
 16 18  1  0  0  0  0
 18 19  1  0  0  0  0
 20 21  1  0  0  0  0
 20 50  1  0  0  0  0
 20 51  1  0  0  0  0
 21 22  1  0  0  0  0
 21 52  1  0  0  0  0
 21 53  1  0  0  0  0
 22 23  1  0  0  0  0
 22 54  1  0  0  0  0
 22 55  1  0  0  0  0
 23 27  1  0  0  0  0
 23 24  1  0  0  0  0
 24 25  2  0  0  0  0
 24 56  1  0  0  0  0
 25 26  1  0  0  0  0
 25 57  1  0  0  0  0
 26 27  2  0  0  0  0
 27 58  1  0  0  0  0
 28 33  2  0  0  0  0
 28 29  1  0  0  0  0
 29 30  2  0  0  0  0
 29 59  1  0  0  0  0
 30 31  1  0  0  0  0
 30 60  1  0  0  0  0
 31 32  2  0  0  0  0
 31 34  1  0  0  0  0
 32 33  1  0  0  0  0
 32 61  1  0  0  0  0
 33 62  1  0  0  0  0
 34 35  1  0  0  0  0
 35 36  1  0  0  0  0
 35 63  1  0  0  0  0
 35 64  1  0  0  0  0
 36 37  2  0  0  0  0
 36 65  1  0  0  0  0
 37 66  1  0  0  0  0
 37 67  1  0  0  0  0
M  CHG  1  19  -1
M  END
$$$$
ZINC10217751
 OpenBabel01252620473D

 55 57  0  0  1  0  0  0  0  0999 V2000
    1.3959    5.3702    1.8947 C   0  0  0  0  0  0  0  0  0  0  0  0
    2.3463    4.1819    2.0550 C   0  0  0  0  0  0  0  0  0  0  0  0
    2.2558    3.3213    0.8728 N   0  0  0  0  0  0  0  0  0  0  0  0
    1.4244    2.2466    0.8905 C   0  0  0  0  0  0  0  0  0  0  0  0
    1.3151    1.4372   -0.1848 C   0  0  0  0  0  0  0  0  0  0  0  0
    2.0794    1.6993   -1.3394 C   0  0  0  0  0  0  0  0  0  0  0  0
    2.9269    2.7916   -1.3480 C   0  0  0  0  0  0  0  0  0  0  0  0
    3.0016    3.6048   -0.2111 C   0  0  0  0  0  0  0  0  0  0  0  0
    3.7453    4.5734   -0.2027 O   0  0  0  0  0  0  0  0  0  0  0  0
    3.7589    3.1028   -2.5653 C   0  0  1  0  0  0  0  0  0  0  0  0
    3.8383    1.8818   -3.4450 C   0  0  0  0  0  0  0  0  0  0  0  0
    4.6325    0.8130   -3.0740 C   0  0  0  0  0  0  0  0  0  0  0  0
    4.7023   -0.3086   -3.8790 C   0  0  0  0  0  0  0  0  0  0  0  0
    3.9846   -0.3578   -5.0594 C   0  0  0  0  0  0  0  0  0  0  0  0
    3.1941    0.7129   -5.4329 C   0  0  0  0  0  0  0  0  0  0  0  0
    3.1213    1.8329   -4.6259 C   0  0  0  0  0  0  0  0  0  0  0  0
    4.0629   -1.5569   -5.9237 N   0  0  0  0  0  4  0  0  0  0  0  0
    3.4308   -1.6001   -6.9640 O   0  0  0  0  0  0  0  0  0  0  0  0
    4.7594   -2.5004   -5.5947 O   0  5  0  0  0  0  0  0  0  0  0  0
    3.1238    4.2340   -3.3321 C   0  0  0  0  0  0  0  0  0  0  0  0
    3.8746    5.3309   -3.7124 C   0  0  0  0  0  0  0  0  0  0  0  0
    3.2502    6.3692   -4.4321 C   0  0  0  0  0  0  0  0  0  0  0  0
    1.9359    6.2837   -4.7295 C   0  0  0  0  0  0  0  0  0  0  0  0
    1.2033    5.2046   -4.3483 N   0  0  0  0  0  0  0  0  0  0  0  0
    1.7645    4.1908   -3.6637 C   0  0  0  0  0  0  0  0  0  0  0  0
    1.0864    3.2313   -3.3307 O   0  0  0  0  0  0  0  0  0  0  0  0
   -0.2206    5.1440   -4.6875 C   0  0  0  0  0  0  0  0  0  0  0  0
   -0.4011    4.3689   -5.9942 C   0  0  0  0  0  0  0  0  0  0  0  0
    1.2726    7.4002   -5.4941 C   0  0  0  0  0  0  0  0  0  0  0  0
    5.1909    5.4043   -3.4019 O   0  5  0  0  0  0  0  0  0  0  0  0
    1.9854    0.8933   -2.4239 O   0  5  0  0  0  0  0  0  0  0  0  0
    0.6095    1.9572    2.1246 C   0  0  0  0  0  0  0  0  0  0  0  0
    1.4638    6.0164    2.7823 H   0  0  0  0  0  0  0  0  0  0  0  0
    0.3647    5.0029    1.7866 H   0  0  0  0  0  0  0  0  0  0  0  0
    1.6759    5.9456    1.0000 H   0  0  0  0  0  0  0  0  0  0  0  0
    3.3775    4.5492    2.1631 H   0  0  0  0  0  0  0  0  0  0  0  0
    2.0663    3.6065    2.9497 H   0  0  0  0  0  0  0  0  0  0  0  0
    0.6475    0.5887   -0.1583 H   0  0  0  0  0  0  0  0  0  0  0  0
    4.7719    3.3955   -2.2520 H   0  0  0  0  0  0  0  0  0  0  0  0
    5.1961    0.8530   -2.1536 H   0  0  0  0  0  0  0  0  0  0  0  0
    5.3201   -1.1450   -3.5874 H   0  0  0  0  0  0  0  0  0  0  0  0
    2.6336    0.6746   -6.3553 H   0  0  0  0  0  0  0  0  0  0  0  0
    2.5040    2.6697   -4.9178 H   0  0  0  0  0  0  0  0  0  0  0  0
    3.8205    7.2325   -4.7416 H   0  0  0  0  0  0  0  0  0  0  0  0
   -0.7684    4.6351   -3.8807 H   0  0  0  0  0  0  0  0  0  0  0  0
   -0.6122    6.1646   -4.8095 H   0  0  0  0  0  0  0  0  0  0  0  0
   -1.4703    4.3234   -6.2488 H   0  0  0  0  0  0  0  0  0  0  0  0
   -0.0095    3.3482   -5.8722 H   0  0  0  0  0  0  0  0  0  0  0  0
    0.1467    4.8778   -6.8010 H   0  0  0  0  0  0  0  0  0  0  0  0
    0.2096    7.1607   -5.6444 H   0  0  0  0  0  0  0  0  0  0  0  0
    1.7637    7.5176   -6.4714 H   0  0  0  0  0  0  0  0  0  0  0  0
    1.3604    8.3372   -4.9246 H   0  0  0  0  0  0  0  0  0  0  0  0
   -0.0001    1.0568    1.9586 H   0  0  0  0  0  0  0  0  0  0  0  0
   -0.0493    2.8119    2.3377 H   0  0  0  0  0  0  0  0  0  0  0  0
    1.2831    1.7917    2.9783 H   0  0  0  0  0  0  0  0  0  0  0  0
  1  2  1  0  0  0  0
  1 33  1  0  0  0  0
  1 34  1  0  0  0  0
  1 35  1  0  0  0  0
  2  3  1  0  0  0  0
  2 36  1  0  0  0  0
  2 37  1  0  0  0  0
  3  8  1  0  0  0  0
  3  4  1  0  0  0  0
  4  5  2  0  0  0  0
  4 32  1  0  0  0  0
  5  6  1  0  0  0  0
  5 38  1  0  0  0  0
  6  7  2  0  0  0  0
  6 31  1  0  0  0  0
  7  8  1  0  0  0  0
  7 10  1  0  0  0  0
  8  9  2  0  0  0  0
 10 11  1  0  0  0  0
 10 20  1  0  0  0  0
 10 39  1  1  0  0  0
 11 16  2  0  0  0  0
 11 12  1  0  0  0  0
 12 13  2  0  0  0  0
 12 40  1  0  0  0  0
 13 14  1  0  0  0  0
 13 41  1  0  0  0  0
 14 15  2  0  0  0  0
 14 17  1  0  0  0  0
 15 16  1  0  0  0  0
 15 42  1  0  0  0  0
 16 43  1  0  0  0  0
 17 18  2  0  0  0  0
 17 19  1  0  0  0  0
 20 25  1  0  0  0  0
 20 21  2  0  0  0  0
 21 22  1  0  0  0  0
 21 30  1  0  0  0  0
 22 23  2  0  0  0  0
 22 44  1  0  0  0  0
 23 24  1  0  0  0  0
 23 29  1  0  0  0  0
 24 25  1  0  0  0  0
 24 27  1  0  0  0  0
 25 26  2  0  0  0  0
 27 28  1  0  0  0  0
 27 45  1  0  0  0  0
 27 46  1  0  0  0  0
 28 47  1  0  0  0  0
 28 48  1  0  0  0  0
 28 49  1  0  0  0  0
 29 50  1  0  0  0  0
 29 51  1  0  0  0  0
 29 52  1  0  0  0  0
 32 53  1  0  0  0  0
 32 54  1  0  0  0  0
 32 55  1  0  0  0  0
M  CHG  3  19  -1  30  -1  31  -1
M  END
$$$$
ZINC13045443
 OpenBabel01252620473D

 50 52  0  0  0  0  0  0  0  0999 V2000
   -7.1300   -6.3062    2.1407 C   0  0  0  0  0  0  0  0  0  0  0  0
   -6.5362   -5.0550    2.6183 N   0  0  0  0  0  0  0  0  0  0  0  0
   -5.5469   -4.4617    1.8871 C   0  0  0  0  0  0  0  0  0  0  0  0
   -4.9800   -3.2640    2.3561 C   0  0  0  0  0  0  0  0  0  0  0  0
   -5.4964   -2.7060    3.6126 C   0  0  0  0  0  0  0  0  0  0  0  0
   -5.0464   -1.6686    4.0630 O   0  0  0  0  0  0  0  0  0  0  0  0
   -6.4800   -3.3671    4.2570 N   0  0  0  0  0  0  0  0  0  0  0  0
   -6.9795   -4.5114    3.7626 C   0  0  0  0  0  0  0  0  0  0  0  0
   -7.8653   -5.0759    4.3742 O   0  0  0  0  0  0  0  0  0  0  0  0
   -7.0107   -2.8293    5.5121 C   0  0  0  0  0  0  0  0  0  0  0  0
   -3.9516   -2.6154    1.6395 C   0  0  0  0  0  0  0  0  0  0  0  0
   -3.4688   -3.1438    0.6582 O   0  0  0  0  0  0  0  0  0  0  0  0
   -3.4526   -1.2673    2.0919 C   0  0  0  0  0  0  0  0  0  0  0  0
   -2.1432   -0.7034    0.9767 S   0  0  0  0  0  0  0  0  0  0  0  0
   -1.7562    0.8472    1.7186 C   0  0  0  0  0  0  0  0  0  0  0  0
   -2.4207    1.2115    2.7874 N   0  0  0  0  0  0  0  0  0  0  0  0
   -2.1747    2.3894    3.4077 C   0  0  0  0  0  0  0  0  0  0  0  0
   -2.8847    2.7756    4.5482 C   0  0  0  0  0  0  0  0  0  0  0  0
   -2.5973    3.9935    5.1513 C   0  0  0  0  0  0  0  0  0  0  0  0
   -1.6053    4.8308    4.6245 C   0  0  0  0  0  0  0  0  0  0  0  0
   -0.9057    4.4643    3.5108 C   0  0  0  0  0  0  0  0  0  0  0  0
   -1.1773    3.2458    2.8894 C   0  0  0  0  0  0  0  0  0  0  0  0
   -0.4433    2.8089    1.6910 C   0  0  0  0  0  0  0  0  0  0  0  0
    0.4300    3.4997    1.1996 O   0  0  0  0  0  0  0  0  0  0  0  0
   -0.7780    1.6137    1.1526 N   0  0  0  0  0  0  0  0  0  0  0  0
   -0.0811    1.1351   -0.0438 C   0  0  0  0  0  0  0  0  0  0  0  0
   -0.8248    1.6128   -1.2926 C   0  0  0  0  0  0  0  0  0  0  0  0
   -0.7659    3.0387   -1.3658 O   0  0  0  0  0  0  0  0  0  0  0  0
   -3.3441    4.4093    6.3590 C   0  0  0  0  0  0  0  0  0  0  0  0
   -4.2046    3.6867    6.8196 O   0  0  0  0  0  0  0  0  0  0  0  0
   -5.1136   -5.0236    0.7262 N   0  0  0  0  0  0  0  0  0  0  0  0
   -7.9007   -6.6324    2.8389 H   0  0  0  0  0  0  0  0  0  0  0  0
   -7.5740   -6.1458    1.1582 H   0  0  0  0  0  0  0  0  0  0  0  0
   -6.3569   -7.0713    2.0694 H   0  0  0  0  0  0  0  0  0  0  0  0
   -7.8456   -2.1621    5.2974 H   0  0  0  0  0  0  0  0  0  0  0  0
   -7.3540   -3.6495    6.1426 H   0  0  0  0  0  0  0  0  0  0  0  0
   -6.2275   -2.2760    6.0303 H   0  0  0  0  0  0  0  0  0  0  0  0
   -3.0904   -1.3406    3.0211 H   0  0  0  0  0  0  0  0  0  0  0  0
   -4.2750   -0.5520    2.0778 H   0  0  0  0  0  0  0  0  0  0  0  0
   -3.6499    2.1324    4.9571 H   0  0  0  0  0  0  0  0  0  0  0  0
   -1.3922    5.7751    5.1035 H   0  0  0  0  0  0  0  0  0  0  0  0
   -0.1428    5.1166    3.1122 H   0  0  0  0  0  0  0  0  0  0  0  0
   -0.0493    0.0456   -0.0344 H   0  0  0  0  0  0  0  0  0  0  0  0
    0.9355    1.5281   -0.0537 H   0  0  0  0  0  0  0  0  0  0  0  0
   -0.3585    1.1839   -2.1796 H   0  0  0  0  0  0  0  0  0  0  0  0
   -1.8659    1.2944   -1.2395 H   0  0  0  0  0  0  0  0  0  0  0  0
   -1.2180    3.4121   -2.1347 H   0  0  0  0  0  0  0  0  0  0  0  0
   -4.3551   -4.6427    0.2566 H   0  0  0  0  0  0  0  0  0  0  0  0
   -5.5631   -5.8051    0.3682 H   0  0  0  0  0  0  0  0  0  0  0  0
   -3.0694    5.5891    6.9477 O   0  0  0  0  0  1  0  0  0  0  0  0
  1  2  1  0  0  0  0
  1 32  1  0  0  0  0
  1 33  1  0  0  0  0
  1 34  1  0  0  0  0
  2  8  1  0  0  0  0
  2  3  1  0  0  0  0
  3  4  2  0  0  0  0
  3 31  1  0  0  0  0
  4  5  1  0  0  0  0
  4 11  1  0  0  0  0
  5  6  2  0  0  0  0
  5  7  1  0  0  0  0
  7  8  1  0  0  0  0
  7 10  1  0  0  0  0
  8  9  2  0  0  0  0
 10 35  1  0  0  0  0
 10 36  1  0  0  0  0
 10 37  1  0  0  0  0
 11 12  2  0  0  0  0
 11 13  1  0  0  0  0
 13 14  1  0  0  0  0
 13 38  1  0  0  0  0
 13 39  1  0  0  0  0
 14 15  1  0  0  0  0
 15 25  1  0  0  0  0
 15 16  2  0  0  0  0
 16 17  1  0  0  0  0
 17 22  2  0  0  0  0
 17 18  1  0  0  0  0
 18 19  2  0  0  0  0
 18 40  1  0  0  0  0
 19 20  1  0  0  0  0
 19 29  1  0  0  0  0
 20 21  2  0  0  0  0
 20 41  1  0  0  0  0
 21 22  1  0  0  0  0
 21 42  1  0  0  0  0
 22 23  1  0  0  0  0
 23 24  2  0  0  0  0
 23 25  1  0  0  0  0
 25 26  1  0  0  0  0
 26 27  1  0  0  0  0
 26 43  1  0  0  0  0
 26 44  1  0  0  0  0
 27 28  1  0  0  0  0
 27 45  1  0  0  0  0
 27 46  1  0  0  0  0
 28 47  1  0  0  0  0
 29 30  2  0  0  0  0
 29 50  1  0  0  0  0
 31 48  1  0  0  0  0
 31 49  1  0  0  0  0
M  END
$$$$
ZINC63482152
 OpenBabel01252620473D

 39 40  0  0  0  0  0  0  0  0999 V2000
    1.4776   -0.9450   -2.1663 C   0  0  0  0  0  0  0  0  0  0  0  0
    0.6428   -1.0266   -0.8867 C   0  0  0  0  0  0  0  0  0  0  0  0
    1.4614   -1.7058    0.2136 C   0  0  0  0  0  0  0  0  0  0  0  0
    0.6353   -1.7546    1.5028 C   0  0  0  0  0  0  0  0  0  0  0  0
   -0.6496   -2.4072    1.2166 N   0  0  0  0  0  0  0  0  0  0  0  0
   -1.4755   -1.8896    0.1172 C   0  0  0  0  0  0  0  0  0  0  0  0
   -0.6257   -1.8392   -1.1564 C   0  0  0  0  0  0  0  0  0  0  0  0
   -1.0626   -3.4610    1.9484 C   0  0  0  0  0  0  0  0  0  0  0  0
   -2.1608   -3.9449    1.7517 O   0  0  0  0  0  0  0  0  0  0  0  0
   -0.1830   -4.0271    2.9874 C   0  0  0  0  0  0  0  0  0  0  0  0
    0.3404   -3.2053    3.9894 C   0  0  0  0  0  0  0  0  0  0  0  0
    1.1623   -3.7414    4.9587 C   0  0  0  0  0  0  0  0  0  0  0  0
    1.4725   -5.0941    4.9440 C   0  0  0  0  0  0  0  0  0  0  0  0
    0.9630   -5.9165    3.9604 C   0  0  0  0  0  0  0  0  0  0  0  0
    0.1289   -5.3950    2.9794 C   0  0  0  0  0  0  0  0  0  0  0  0
   -0.3898   -6.2235    1.9912 N   0  0  0  0  0  2  0  0  0  0  0  0
   -0.0192   -7.8375    1.9853 S   0  0  0  0  0  0  0  0  0  0  0  0
    1.3844   -7.8865    1.7691 O   0  0  0  0  0  0  0  0  0  0  0  0
   -0.5853   -8.3439    3.1863 O   0  0  0  0  0  0  0  0  0  0  0  0
   -0.8967   -8.5121    0.5481 C   0  0  0  0  0  0  0  0  0  0  0  0
    1.6681   -2.9461    5.9266 F   0  0  0  0  0  0  0  0  0  0  0  0
    0.8951   -0.4602   -2.9498 H   0  0  0  0  0  0  0  0  0  0  0  0
    2.3811   -0.3663   -1.9744 H   0  0  0  0  0  0  0  0  0  0  0  0
    1.7512   -1.9504   -2.4863 H   0  0  0  0  0  0  0  0  0  0  0  0
    0.3689   -0.0212   -0.5671 H   0  0  0  0  0  0  0  0  0  0  0  0
    1.7146   -2.7201   -0.0948 H   0  0  0  0  0  0  0  0  0  0  0  0
    2.3760   -1.1393    0.3889 H   0  0  0  0  0  0  0  0  0  0  0  0
    1.1736   -2.3241    2.2604 H   0  0  0  0  0  0  0  0  0  0  0  0
    0.4582   -0.7409    1.8619 H   0  0  0  0  0  0  0  0  0  0  0  0
   -2.3299   -2.5481   -0.0394 H   0  0  0  0  0  0  0  0  0  0  0  0
   -1.8247   -0.8868    0.3633 H   0  0  0  0  0  0  0  0  0  0  0  0
   -1.1966   -1.3677   -1.9563 H   0  0  0  0  0  0  0  0  0  0  0  0
   -0.3528   -2.8523   -1.4520 H   0  0  0  0  0  0  0  0  0  0  0  0
    0.1020   -2.1521    4.0045 H   0  0  0  0  0  0  0  0  0  0  0  0
    2.1169   -5.5054    5.7069 H   0  0  0  0  0  0  0  0  0  0  0  0
    1.2094   -6.9680    3.9556 H   0  0  0  0  0  0  0  0  0  0  0  0
   -0.5475   -8.0150   -0.3569 H   0  0  0  0  0  0  0  0  0  0  0  0
   -0.7023   -9.5820    0.4730 H   0  0  0  0  0  0  0  0  0  0  0  0
   -1.9674   -8.3447    0.6646 H   0  0  0  0  0  0  0  0  0  0  0  0
  1  2  1  0  0  0  0
  1 22  1  0  0  0  0
  1 23  1  0  0  0  0
  1 24  1  0  0  0  0
  2  7  1  0  0  0  0
  2  3  1  0  0  0  0
  2 25  1  0  0  0  0
  3  4  1  0  0  0  0
  3 26  1  0  0  0  0
  3 27  1  0  0  0  0
  4  5  1  0  0  0  0
  4 28  1  0  0  0  0
  4 29  1  0  0  0  0
  5  6  1  0  0  0  0
  5  8  1  0  0  0  0
  6  7  1  0  0  0  0
  6 30  1  0  0  0  0
  6 31  1  0  0  0  0
  7 32  1  0  0  0  0
  7 33  1  0  0  0  0
  8  9  2  0  0  0  0
  8 10  1  0  0  0  0
 10 15  2  0  0  0  0
 10 11  1  0  0  0  0
 11 12  2  0  0  0  0
 11 34  1  0  0  0  0
 12 13  1  0  0  0  0
 12 21  1  0  0  0  0
 13 14  2  0  0  0  0
 13 35  1  0  0  0  0
 14 15  1  0  0  0  0
 14 36  1  0  0  0  0
 15 16  1  0  0  0  0
 16 17  1  0  0  0  0
 17 18  2  0  0  0  0
 17 19  2  0  0  0  0
 17 20  1  0  0  0  0
 20 37  1  0  0  0  0
 20 38  1  0  0  0  0
 20 39  1  0  0  0  0
M  END
$$$$
ZINC34255655
 OpenBabel01252620473D

 54 57  0  0  1  0  0  0  0  0999 V2000
    1.1449    1.4967   -0.8547 C   0  0  0  0  0  0  0  0  0  0  0  0
    1.1199   -0.0098   -0.8265 C   0  0  0  0  0  0  0  0  0  0  0  0
    2.1075   -0.6245   -0.4998 O   0  0  0  0  0  0  0  0  0  0  0  0
    0.0001   -0.6691   -1.1644 O   0  0  0  0  0  0  0  0  0  0  0  0
    0.0518   -2.0260   -1.2238 C   0  0  0  0  0  0  0  0  0  0  0  0
    0.0300   -2.7740   -0.0556 C   0  0  0  0  0  0  0  0  0  0  0  0
    0.0822   -4.1530   -0.1187 C   0  0  0  0  0  0  0  0  0  0  0  0
    0.1560   -4.7878   -1.3448 C   0  0  0  0  0  0  0  0  0  0  0  0
    0.1782   -4.0446   -2.5105 C   0  0  0  0  0  0  0  0  0  0  0  0
    0.1205   -2.6655   -2.4530 C   0  0  0  0  0  0  0  0  0  0  0  0
    0.2127   -6.2923   -1.4108 C   0  0  1  0  0  0  0  0  0  0  0  0
    0.5492   -6.7058   -0.4600 H   0  0  0  0  0  0  0  0  0  0  0  0
   -1.1465   -6.8666   -1.7975 C   0  0  1  0  0  0  0  0  0  0  0  0
   -1.6261   -6.3030   -2.5977 H   0  0  0  0  0  0  0  0  0  0  0  0
   -0.6384   -8.2907   -2.2409 C   0  0  1  0  0  0  0  0  0  0  0  0
   -0.1343   -8.6681   -1.3513 H   0  0  0  0  0  0  0  0  0  0  0  0
   -1.8593   -9.0601   -2.2326 C   0  0  0  0  0  0  0  0  0  0  0  0
   -2.1601   -9.9754   -2.9683 O   0  0  0  0  0  0  0  0  0  0  0  0
   -2.6059   -8.5293   -1.2101 N   0  0  0  0  0  0  0  0  0  0  0  0
   -2.1175   -7.3221   -0.7544 C   0  0  0  0  0  0  0  0  0  0  0  0
   -2.4038   -6.7489    0.2747 O   0  0  0  0  0  0  0  0  0  0  0  0
   -3.7547   -9.1413   -0.6891 C   0  0  0  0  0  0  0  0  0  0  0  0
   -4.1913  -10.3543   -1.2046 C   0  0  0  0  0  0  0  0  0  0  0  0
   -5.3232  -10.9547   -0.6894 C   0  0  0  0  0  0  0  0  0  0  0  0
   -6.0218  -10.3489    0.3390 C   0  0  0  0  0  0  0  0  0  0  0  0
   -5.5898   -9.1408    0.8540 C   0  0  0  0  0  0  0  0  0  0  0  0
   -4.4547   -8.5384    0.3469 C   0  0  0  0  0  0  0  0  0  0  0  0
   -6.3405   -8.4954    1.9543 N   0  0  0  0  0  4  0  0  0  0  0  0
   -7.3309   -9.0246    2.4022 O   0  0  0  0  0  0  0  0  0  0  0  0
   -5.9633   -7.4389    2.4052 O   0  5  0  0  0  0  0  0  0  0  0  0
    0.4969   -7.9900   -3.1220 C   0  0  1  0  0  0  0  0  0  0  0  0
    1.1055   -6.7404   -2.5290 N   0  3  0  0  0  0  0  0  0  0  0  0
    1.5167   -9.1299   -3.0861 C   0  0  0  0  0  0  0  0  0  0  0  0
    2.7268   -8.7472   -3.8987 C   0  0  0  0  0  0  0  0  0  0  0  0
    2.7695   -7.6632   -4.4551 O   0  0  0  0  0  0  0  0  0  0  0  0
    3.6630   -9.5216   -3.9998 O   0  0  0  0  0  1  0  0  0  0  0  0
    0.0198   -7.7543   -4.5320 C   0  0  0  0  0  0  0  0  0  0  0  0
    0.2292   -6.6831   -5.0753 O   0  0  0  0  0  0  0  0  0  0  0  0
   -0.5755   -8.6348   -5.1293 O   0  0  0  0  0  1  0  0  0  0  0  0
    1.4604    1.8364   -1.8411 H   0  0  0  0  0  0  0  0  0  0  0  0
    0.1477    1.8807   -0.6399 H   0  0  0  0  0  0  0  0  0  0  0  0
    1.8448    1.8626   -0.1034 H   0  0  0  0  0  0  0  0  0  0  0  0
   -0.0273   -2.2786    0.9023 H   0  0  0  0  0  0  0  0  0  0  0  0
    0.0656   -4.7358    0.7904 H   0  0  0  0  0  0  0  0  0  0  0  0
    0.2363   -4.5428   -3.4670 H   0  0  0  0  0  0  0  0  0  0  0  0
    0.1335   -2.0856   -3.3640 H   0  0  0  0  0  0  0  0  0  0  0  0
   -3.6463  -10.8277   -2.0080 H   0  0  0  0  0  0  0  0  0  0  0  0
   -5.6634  -11.8981   -1.0903 H   0  0  0  0  0  0  0  0  0  0  0  0
   -6.9067  -10.8203    0.7403 H   0  0  0  0  0  0  0  0  0  0  0  0
   -4.1149   -7.5971    0.7529 H   0  0  0  0  0  0  0  0  0  0  0  0
    1.1528   -6.0235   -3.2375 H   0  0  0  0  0  0  0  0  0  0  0  0
    1.8161   -9.3172   -2.0548 H   0  0  0  0  0  0  0  0  0  0  0  0
    1.0688  -10.0315   -3.5039 H   0  0  0  0  0  0  0  0  0  0  0  0
    2.0296   -6.9334   -2.1729 H   0  0  0  0  0  0  0  0  0  0  0  0
  1  2  1  0  0  0  0
  1 40  1  0  0  0  0
  1 41  1  0  0  0  0
  1 42  1  0  0  0  0
  2  3  2  0  0  0  0
  2  4  1  0  0  0  0
  4  5  1  0  0  0  0
  5 10  2  0  0  0  0
  5  6  1  0  0  0  0
  6  7  2  0  0  0  0
  6 43  1  0  0  0  0
  7  8  1  0  0  0  0
  7 44  1  0  0  0  0
  8  9  2  0  0  0  0
  8 11  1  0  0  0  0
  9 10  1  0  0  0  0
  9 45  1  0  0  0  0
 10 46  1  0  0  0  0
 11 12  1  1  0  0  0
 11 32  1  0  0  0  0
 11 13  1  0  0  0  0
 13 14  1  6  0  0  0
 13 20  1  0  0  0  0
 13 15  1  0  0  0  0
 15 16  1  1  0  0  0
 15 17  1  0  0  0  0
 15 31  1  0  0  0  0
 17 18  2  0  0  0  0
 17 19  1  0  0  0  0
 19 20  1  0  0  0  0
 19 22  1  0  0  0  0
 20 21  2  0  0  0  0
 22 27  2  0  0  0  0
 22 23  1  0  0  0  0
 23 24  2  0  0  0  0
 23 47  1  0  0  0  0
 24 25  1  0  0  0  0
 24 48  1  0  0  0  0
 25 26  2  0  0  0  0
 25 49  1  0  0  0  0
 26 27  1  0  0  0  0
 26 28  1  0  0  0  0
 27 50  1  0  0  0  0
 28 29  2  0  0  0  0
 28 30  1  0  0  0  0
 31 32  1  0  0  0  0
 31 33  1  0  0  0  0
 31 37  1  6  0  0  0
 32 51  1  0  0  0  0
 32 54  1  0  0  0  0
 33 34  1  0  0  0  0
 33 52  1  0  0  0  0
 33 53  1  0  0  0  0
 34 35  2  0  0  0  0
 34 36  1  0  0  0  0
 37 38  2  0  0  0  0
 37 39  1  0  0  0  0
M  CHG  2  30  -1  32   1
M  END
$$$$
ZINC39937428
 OpenBabel01252620473D

 69 70  0  0  1  0  0  0  0  0999 V2000
   -2.1277   -2.0485   -2.0504 C   0  0  0  0  0  0  0  0  0  0  0  0
   -0.9575   -1.9862   -1.1029 C   0  0  0  0  0  0  0  0  0  0  0  0
   -0.9218   -1.0029   -0.2195 C   0  0  0  0  0  0  0  0  0  0  0  0
    0.1868   -0.8168    0.7752 C   0  0  0  0  0  0  0  0  0  0  0  0
    0.9977   -2.1075    0.9075 C   0  0  0  0  0  0  0  0  0  0  0  0
    1.3751   -2.5922   -0.4977 C   0  0  0  0  0  0  0  0  0  0  0  0
    0.0987   -3.0473   -1.2111 C   0  0  0  0  0  0  0  0  0  0  0  0
    1.1051    0.3133    0.3058 C   0  0  0  0  0  0  0  0  0  0  0  0
   -0.4089   -0.4504    2.1360 C   0  0  0  0  0  0  0  0  0  0  0  0
   -1.9908   -0.0715   -0.2117 C   0  0  0  0  0  0  0  0  0  0  0  0
   -3.2661   -0.5026   -0.0286 C   0  0  0  0  0  0  0  0  0  0  0  0
   -4.3160    0.4281    0.0677 C   0  0  0  0  0  0  0  0  0  0  0  0
   -5.5964   -0.0047    0.2516 C   0  0  0  0  0  0  0  0  0  0  0  0
   -5.8660   -1.3784    0.3447 C   0  0  0  0  0  0  0  0  0  0  0  0
   -7.1478   -1.8118    0.5288 C   0  0  0  0  0  0  0  0  0  0  0  0
   -7.4173   -3.1853    0.6219 C   0  0  0  0  0  0  0  0  0  0  0  0
   -8.6976   -3.6181    0.8058 C   0  0  0  0  0  0  0  0  0  0  0  0
   -8.9522   -4.9834    1.0475 C   0  0  0  0  0  0  0  0  0  0  0  0
   -8.0252   -5.7575    1.2023 O   0  0  0  0  0  0  0  0  0  0  0  0
  -10.2243   -5.4328    1.1073 O   0  0  0  0  0  0  0  0  0  0  0  0
  -10.4086   -6.8279    1.3555 C   0  0  2  0  0  0  0  0  0  0  0  0
   -9.7876   -7.4043    0.6697 H   0  0  0  0  0  0  0  0  0  0  0  0
  -11.8797   -7.1944    1.1429 C   0  0  1  0  0  0  0  0  0  0  0  0
  -12.0135   -8.2658    1.2926 H   0  0  0  0  0  0  0  0  0  0  0  0
  -12.7401   -6.4255    2.1503 C   0  0  2  0  0  0  0  0  0  0  0  0
  -12.6449   -5.3549    1.9689 H   0  0  0  0  0  0  0  0  0  0  0  0
  -12.2592   -6.7496    3.5681 C   0  0  2  0  0  0  0  0  0  0  0  0
  -12.8299   -6.1642    4.2890 H   0  0  0  0  0  0  0  0  0  0  0  0
  -10.7734   -6.4003    3.6870 C   0  0  2  0  0  0  0  0  0  0  0  0
  -10.6377   -5.3305    3.5281 H   0  0  0  0  0  0  0  0  0  0  0  0
  -10.0343   -7.1259    2.7021 O   0  0  0  0  0  0  0  0  0  0  0  0
  -10.2784   -6.7711    5.0612 C   0  0  0  0  0  0  0  0  0  0  0  0
   -9.4400   -7.6467    5.1914 O   0  0  0  0  0  0  0  0  0  0  0  0
  -10.7162   -6.1956    6.0428 O   0  0  0  0  0  1  0  0  0  0  0  0
  -12.4460   -8.1421    3.8290 O   0  0  0  0  0  0  0  0  0  0  0  0
  -14.1074   -6.8150    2.0067 O   0  0  0  0  0  0  0  0  0  0  0  0
  -12.2716   -6.8453   -0.1862 O   0  0  0  0  0  0  0  0  0  0  0  0
   -6.2923   -4.1826    0.5188 C   0  0  0  0  0  0  0  0  0  0  0  0
   -4.0265    1.9037   -0.0323 C   0  0  0  0  0  0  0  0  0  0  0  0
   -1.9696   -2.8512   -2.7707 H   0  0  0  0  0  0  0  0  0  0  0  0
   -3.0412   -2.2401   -1.4875 H   0  0  0  0  0  0  0  0  0  0  0  0
   -2.2186   -1.0992   -2.5784 H   0  0  0  0  0  0  0  0  0  0  0  0
    1.9027   -1.9140    1.4833 H   0  0  0  0  0  0  0  0  0  0  0  0
    0.3975   -2.8674    1.4079 H   0  0  0  0  0  0  0  0  0  0  0  0
    1.8386   -1.7773   -1.0538 H   0  0  0  0  0  0  0  0  0  0  0  0
    2.0694   -3.4290   -0.4221 H   0  0  0  0  0  0  0  0  0  0  0  0
   -0.2657   -3.9677   -0.7549 H   0  0  0  0  0  0  0  0  0  0  0  0
    0.3203   -3.2306   -2.2625 H   0  0  0  0  0  0  0  0  0  0  0  0
    0.5317    1.2365    0.2224 H   0  0  0  0  0  0  0  0  0  0  0  0
    1.9110    0.4500    1.0270 H   0  0  0  0  0  0  0  0  0  0  0  0
    1.5270    0.0585   -0.6664 H   0  0  0  0  0  0  0  0  0  0  0  0
   -0.9993   -1.2864    2.5111 H   0  0  0  0  0  0  0  0  0  0  0  0
    0.3958   -0.2302    2.8375 H   0  0  0  0  0  0  0  0  0  0  0  0
   -1.0476    0.4263    2.0289 H   0  0  0  0  0  0  0  0  0  0  0  0
   -1.7913    0.9807   -0.3514 H   0  0  0  0  0  0  0  0  0  0  0  0
   -3.4735   -1.5601    0.0431 H   0  0  0  0  0  0  0  0  0  0  0  0
   -6.4027    0.7100    0.3256 H   0  0  0  0  0  0  0  0  0  0  0  0
   -5.0597   -2.0932    0.2708 H   0  0  0  0  0  0  0  0  0  0  0  0
   -7.9541   -1.0970    0.6028 H   0  0  0  0  0  0  0  0  0  0  0  0
   -9.5163   -2.9149    0.7663 H   0  0  0  0  0  0  0  0  0  0  0  0
  -12.1622   -8.4185    4.7112 H   0  0  0  0  0  0  0  0  0  0  0  0
  -14.4751   -6.6436    1.1289 H   0  0  0  0  0  0  0  0  0  0  0  0
  -11.7637   -7.2934   -0.8765 H   0  0  0  0  0  0  0  0  0  0  0  0
   -5.9535   -4.4529    1.5189 H   0  0  0  0  0  0  0  0  0  0  0  0
   -6.6440   -5.0749    0.0009 H   0  0  0  0  0  0  0  0  0  0  0  0
   -5.4656   -3.7415   -0.0381 H   0  0  0  0  0  0  0  0  0  0  0  0
   -4.0883    2.2162   -1.0747 H   0  0  0  0  0  0  0  0  0  0  0  0
   -4.7568    2.4580    0.5572 H   0  0  0  0  0  0  0  0  0  0  0  0
   -3.0249    2.1040    0.3483 H   0  0  0  0  0  0  0  0  0  0  0  0
  1  2  1  0  0  0  0
  1 40  1  0  0  0  0
  1 41  1  0  0  0  0
  1 42  1  0  0  0  0
  2  7  1  0  0  0  0
  2  3  2  0  0  0  0
  3  4  1  0  0  0  0
  3 10  1  0  0  0  0
  4  5  1  0  0  0  0
  4  8  1  0  0  0  0
  4  9  1  0  0  0  0
  5  6  1  0  0  0  0
  5 43  1  0  0  0  0
  5 44  1  0  0  0  0
  6  7  1  0  0  0  0
  6 45  1  0  0  0  0
  6 46  1  0  0  0  0
  7 47  1  0  0  0  0
  7 48  1  0  0  0  0
  8 49  1  0  0  0  0
  8 50  1  0  0  0  0
  8 51  1  0  0  0  0
  9 52  1  0  0  0  0
  9 53  1  0  0  0  0
  9 54  1  0  0  0  0
 10 11  2  0  0  0  0
 10 55  1  0  0  0  0
 11 12  1  0  0  0  0
 11 56  1  0  0  0  0
 12 13  2  0  0  0  0
 12 39  1  0  0  0  0
 13 14  1  0  0  0  0
 13 57  1  0  0  0  0
 14 15  2  0  0  0  0
 14 58  1  0  0  0  0
 15 16  1  0  0  0  0
 15 59  1  0  0  0  0
 16 17  2  0  0  0  0
 16 38  1  0  0  0  0
 17 18  1  0  0  0  0
 17 60  1  0  0  0  0
 18 19  2  0  0  0  0
 18 20  1  0  0  0  0
 20 21  1  0  0  0  0
 21 22  1  6  0  0  0
 21 31  1  0  0  0  0
 21 23  1  0  0  0  0
 23 24  1  1  0  0  0
 23 25  1  0  0  0  0
 23 37  1  0  0  0  0
 25 26  1  6  0  0  0
 25 27  1  0  0  0  0
 25 36  1  0  0  0  0
 27 28  1  1  0  0  0
 27 29  1  0  0  0  0
 27 35  1  0  0  0  0
 29 30  1  6  0  0  0
 29 31  1  0  0  0  0
 29 32  1  0  0  0  0
 32 33  2  0  0  0  0
 32 34  1  0  0  0  0
 35 61  1  0  0  0  0
 36 62  1  0  0  0  0
 37 63  1  0  0  0  0
 38 64  1  0  0  0  0
 38 65  1  0  0  0  0
 38 66  1  0  0  0  0
 39 67  1  0  0  0  0
 39 68  1  0  0  0  0
 39 69  1  0  0  0  0
M  END
$$$$
ZINC32717130
 OpenBabel01252620473D

 40 42  0  0  0  0  0  0  0  0999 V2000
   -0.7561    6.4341    4.9196 C   0  0  0  0  0  0  0  0  0  0  0  0
   -0.1444    5.3116    4.1217 C   0  0  0  0  0  0  0  0  0  0  0  0
    0.5669    4.2433    4.5577 C   0  0  0  0  0  0  0  0  0  0  0  0
    1.0361    3.3282    3.6341 C   0  0  0  0  0  0  0  0  0  0  0  0
    0.7711    3.5261    2.3196 C   0  0  0  0  0  0  0  0  0  0  0  0
   -0.1626    5.0473    2.3562 S   0  0  0  0  0  0  0  0  0  0  0  0
    1.2345    2.5416    0.9338 S   0  0  0  0  0  0  0  0  0  0  0  0
    2.3860    1.8064    1.3247 O   0  0  0  0  0  0  0  0  0  0  0  0
    1.2280    3.4028   -0.1965 O   0  0  0  0  0  0  0  0  0  0  0  0
    0.0259    1.4354    0.6929 N   0  0  0  0  0  2  0  0  0  0  0  0
   -1.2653    1.8665    0.4178 C   0  0  0  0  0  0  0  0  0  0  0  0
   -1.4725    3.0055   -0.3507 C   0  0  0  0  0  0  0  0  0  0  0  0
   -2.7562    3.4287   -0.6270 C   0  0  0  0  0  0  0  0  0  0  0  0
   -3.8470    2.7302   -0.1335 C   0  0  0  0  0  0  0  0  0  0  0  0
   -3.6615    1.6021    0.6349 C   0  0  0  0  0  0  0  0  0  0  0  0
   -2.3677    1.1574    0.9193 C   0  0  0  0  0  0  0  0  0  0  0  0
   -2.1619   -0.0490    1.7415 C   0  0  0  0  0  0  0  0  0  0  0  0
   -1.3746   -0.0264    2.6680 O   0  0  0  0  0  0  0  0  0  0  0  0
   -2.8465   -1.1769    1.4663 N   0  0  0  0  0  0  0  0  0  0  0  0
   -3.9012   -1.3129    0.4511 C   0  0  0  0  0  0  0  0  0  0  0  0
   -4.4100   -2.7685    0.5110 C   0  0  0  0  0  0  0  0  0  0  0  0
   -4.0149   -3.2138    1.9438 C   0  0  0  0  0  0  0  0  0  0  0  0
   -2.6662   -2.4769    2.1377 C   0  0  0  0  0  0  0  0  0  0  0  0
   -0.5500    6.2786    5.9889 H   0  0  0  0  0  0  0  0  0  0  0  0
   -1.8435    6.4511    4.7544 H   0  0  0  0  0  0  0  0  0  0  0  0
   -0.3213    7.3919    4.5979 H   0  0  0  0  0  0  0  0  0  0  0  0
    0.7638    4.1089    5.6111 H   0  0  0  0  0  0  0  0  0  0  0  0
    1.6050    2.4681    3.9551 H   0  0  0  0  0  0  0  0  0  0  0  0
   -0.6278    3.5577   -0.7355 H   0  0  0  0  0  0  0  0  0  0  0  0
   -2.9121    4.3125   -1.2279 H   0  0  0  0  0  0  0  0  0  0  0  0
   -4.8477    3.0725   -0.3523 H   0  0  0  0  0  0  0  0  0  0  0  0
   -4.5150    1.0622    1.0174 H   0  0  0  0  0  0  0  0  0  0  0  0
   -4.7169   -0.6091    0.6733 H   0  0  0  0  0  0  0  0  0  0  0  0
   -3.4849   -1.0898   -0.5423 H   0  0  0  0  0  0  0  0  0  0  0  0
   -5.4976   -2.7838    0.3471 H   0  0  0  0  0  0  0  0  0  0  0  0
   -3.9132   -3.3630   -0.2698 H   0  0  0  0  0  0  0  0  0  0  0  0
   -4.7910   -2.8934    2.6544 H   0  0  0  0  0  0  0  0  0  0  0  0
   -3.9197   -4.3092    1.9742 H   0  0  0  0  0  0  0  0  0  0  0  0
   -1.8337   -3.0203    1.6670 H   0  0  0  0  0  0  0  0  0  0  0  0
   -2.4413   -2.3120    3.2018 H   0  0  0  0  0  0  0  0  0  0  0  0
  1  2  1  0  0  0  0
  1 24  1  0  0  0  0
  1 25  1  0  0  0  0
  1 26  1  0  0  0  0
  2  6  1  0  0  0  0
  2  3  2  0  0  0  0
  3  4  1  0  0  0  0
  3 27  1  0  0  0  0
  4  5  2  0  0  0  0
  4 28  1  0  0  0  0
  5  6  1  0  0  0  0
  5  7  1  0  0  0  0
  7  8  2  0  0  0  0
  7  9  2  0  0  0  0
  7 10  1  0  0  0  0
 10 11  1  0  0  0  0
 11 16  2  0  0  0  0
 11 12  1  0  0  0  0
 12 13  2  0  0  0  0
 12 29  1  0  0  0  0
 13 14  1  0  0  0  0
 13 30  1  0  0  0  0
 14 15  2  0  0  0  0
 14 31  1  0  0  0  0
 15 16  1  0  0  0  0
 15 32  1  0  0  0  0
 16 17  1  0  0  0  0
 17 18  2  0  0  0  0
 17 19  1  0  0  0  0
 19 23  1  0  0  0  0
 19 20  1  0  0  0  0
 20 21  1  0  0  0  0
 20 33  1  0  0  0  0
 20 34  1  0  0  0  0
 21 22  1  0  0  0  0
 21 35  1  0  0  0  0
 21 36  1  0  0  0  0
 22 23  1  0  0  0  0
 22 37  1  0  0  0  0
 22 38  1  0  0  0  0
 23 39  1  0  0  0  0
 23 40  1  0  0  0  0
M  END
$$$$
ZINC35443709
 OpenBabel01252620473D

 75 78  0  0  1  0  0  0  0  0999 V2000
   -0.0187    1.5258    0.0104 C   0  0  0  0  0  0  0  0  0  0  0  0
    0.0021   -0.0041    0.0020 C   0  0  0  0  0  0  0  0  0  0  0  0
   -1.4333   -0.5336    0.0129 C   0  0  0  0  0  0  0  0  0  0  0  0
   -1.4126   -2.0635    0.0045 C   0  0  0  0  0  0  0  0  0  0  0  0
   -2.8479   -2.5931    0.0153 C   0  0  0  0  0  0  0  0  0  0  0  0
   -2.8286   -4.0219    0.0075 O   0  0  0  0  0  0  0  0  0  0  0  0
   -4.0309   -4.6553    0.0155 C   0  0  0  0  0  0  0  0  0  0  0  0
   -5.2054   -3.9166    0.0249 C   0  0  0  0  0  0  0  0  0  0  0  0
   -6.4262   -4.5628    0.0326 C   0  0  0  0  0  0  0  0  0  0  0  0
   -6.4785   -5.9447    0.0310 C   0  0  0  0  0  0  0  0  0  0  0  0
   -5.3097   -6.6829    0.0221 C   0  0  0  0  0  0  0  0  0  0  0  0
   -4.0861   -6.0413    0.0086 C   0  0  0  0  0  0  0  0  0  0  0  0
   -5.3703   -8.1887    0.0209 C   0  0  2  0  0  0  0  0  0  0  0  0
   -4.4177   -8.6021    0.3522 H   0  0  0  0  0  0  0  0  0  0  0  0
   -5.7027   -8.6942   -1.3636 C   0  0  0  0  0  0  0  0  0  0  0  0
   -6.8672   -9.3751   -1.2614 C   0  0  0  0  0  0  0  0  0  0  0  0
   -7.3267   -9.3439    0.1418 C   0  0  0  0  0  0  0  0  0  0  0  0
   -8.3427   -9.8674    0.5546 O   0  0  0  0  0  0  0  0  0  0  0  0
   -6.4532   -8.6510    0.8971 N   0  0  0  0  0  0  0  0  0  0  0  0
   -6.5633   -8.4023    2.3366 C   0  0  0  0  0  0  0  0  0  0  0  0
   -7.3347   -7.1022    2.5721 C   0  0  0  0  0  0  0  0  0  0  0  0
   -7.4497   -6.8425    4.0755 C   0  0  0  0  0  0  0  0  0  0  0  0
   -8.1903   -5.5942    4.3016 N   0  0  0  0  0  0  0  0  0  0  0  0
   -7.4314   -4.4349    3.8102 C   0  0  0  0  0  0  0  0  0  0  0  0
   -8.2629   -3.1652    4.0107 C   0  0  0  0  0  0  0  0  0  0  0  0
   -8.6073   -3.0403    5.3931 O   0  0  0  0  0  0  0  0  0  0  0  0
   -9.3477   -4.1518    5.9046 C   0  0  0  0  0  0  0  0  0  0  0  0
   -8.5272   -5.4315    5.7233 C   0  0  0  0  0  0  0  0  0  0  0  0
   -7.5096   -9.9876   -2.2834 O   0  5  0  0  0  0  0  0  0  0  0  0
   -4.9146   -8.4859   -2.5844 C   0  0  0  0  0  0  0  0  0  0  0  0
   -5.2977   -8.9505   -3.6436 O   0  0  0  0  0  0  0  0  0  0  0  0
   -3.6685   -7.7199   -2.5292 C   0  0  0  0  0  0  0  0  0  0  0  0
   -2.9433   -7.5283   -3.6525 C   0  0  0  0  0  0  0  0  0  0  0  0
   -1.6910   -6.7586   -3.5970 C   0  0  0  0  0  0  0  0  0  0  0  0
   -1.2446   -6.2283   -2.3817 C   0  0  0  0  0  0  0  0  0  0  0  0
   -0.0696   -5.5085   -2.3380 C   0  0  0  0  0  0  0  0  0  0  0  0
    0.6677   -5.3094   -3.4925 C   0  0  0  0  0  0  0  0  0  0  0  0
    0.2330   -5.8307   -4.6989 C   0  0  0  0  0  0  0  0  0  0  0  0
   -0.9369   -6.5578   -4.7583 C   0  0  0  0  0  0  0  0  0  0  0  0
    1.0039    1.9031    0.0027 H   0  0  0  0  0  0  0  0  0  0  0  0
   -0.5459    1.8868   -0.8726 H   0  0  0  0  0  0  0  0  0  0  0  0
   -0.5289    1.8773    0.9072 H   0  0  0  0  0  0  0  0  0  0  0  0
    0.5123   -0.3556   -0.8948 H   0  0  0  0  0  0  0  0  0  0  0  0
    0.5293   -0.3651    0.8851 H   0  0  0  0  0  0  0  0  0  0  0  0
   -1.9435   -0.1821    0.9097 H   0  0  0  0  0  0  0  0  0  0  0  0
   -1.9605   -0.1726   -0.8702 H   0  0  0  0  0  0  0  0  0  0  0  0
   -0.9024   -2.4150   -0.8923 H   0  0  0  0  0  0  0  0  0  0  0  0
   -0.8854   -2.4246    0.8875 H   0  0  0  0  0  0  0  0  0  0  0  0
   -3.3581   -2.2415    0.9121 H   0  0  0  0  0  0  0  0  0  0  0  0
   -3.3751   -2.2320   -0.8677 H   0  0  0  0  0  0  0  0  0  0  0  0
   -5.1652   -2.8374    0.0265 H   0  0  0  0  0  0  0  0  0  0  0  0
   -7.3407   -3.9883    0.0403 H   0  0  0  0  0  0  0  0  0  0  0  0
   -7.4340   -6.4480    0.0371 H   0  0  0  0  0  0  0  0  0  0  0  0
   -3.1733   -6.6185   -0.0028 H   0  0  0  0  0  0  0  0  0  0  0  0
   -7.0930   -9.2297    2.8088 H   0  0  0  0  0  0  0  0  0  0  0  0
   -5.5659   -8.3162    2.7678 H   0  0  0  0  0  0  0  0  0  0  0  0
   -6.8049   -6.2748    2.1000 H   0  0  0  0  0  0  0  0  0  0  0  0
   -8.3320   -7.1883    2.1409 H   0  0  0  0  0  0  0  0  0  0  0  0
   -7.9794   -7.6698    4.5477 H   0  0  0  0  0  0  0  0  0  0  0  0
   -6.4523   -6.7564    4.5067 H   0  0  0  0  0  0  0  0  0  0  0  0
   -6.4972   -4.3496    4.3653 H   0  0  0  0  0  0  0  0  0  0  0  0
   -7.2149   -4.5645    2.7498 H   0  0  0  0  0  0  0  0  0  0  0  0
   -7.6817   -2.2967    3.7005 H   0  0  0  0  0  0  0  0  0  0  0  0
   -9.1724   -3.2276    3.4132 H   0  0  0  0  0  0  0  0  0  0  0  0
   -9.5512   -3.9969    6.9642 H   0  0  0  0  0  0  0  0  0  0  0  0
  -10.2888   -4.2429    5.3622 H   0  0  0  0  0  0  0  0  0  0  0  0
   -9.1107   -6.2887    6.0595 H   0  0  0  0  0  0  0  0  0  0  0  0
   -7.6105   -5.3622    6.3090 H   0  0  0  0  0  0  0  0  0  0  0  0
   -3.3289   -7.3081   -1.5903 H   0  0  0  0  0  0  0  0  0  0  0  0
   -3.2828   -7.9401   -4.5913 H   0  0  0  0  0  0  0  0  0  0  0  0
   -1.8192   -6.3821   -1.4802 H   0  0  0  0  0  0  0  0  0  0  0  0
    0.2763   -5.0985   -1.4007 H   0  0  0  0  0  0  0  0  0  0  0  0
    1.5870   -4.7440   -3.4519 H   0  0  0  0  0  0  0  0  0  0  0  0
    0.8139   -5.6710   -5.5952 H   0  0  0  0  0  0  0  0  0  0  0  0
   -1.2727   -6.9674   -5.6996 H   0  0  0  0  0  0  0  0  0  0  0  0
  1  2  1  0  0  0  0
  1 40  1  0  0  0  0
  1 41  1  0  0  0  0
  1 42  1  0  0  0  0
  2  3  1  0  0  0  0
  2 43  1  0  0  0  0
  2 44  1  0  0  0  0
  3  4  1  0  0  0  0
  3 45  1  0  0  0  0
  3 46  1  0  0  0  0
  4  5  1  0  0  0  0
  4 47  1  0  0  0  0
  4 48  1  0  0  0  0
  5  6  1  0  0  0  0
  5 49  1  0  0  0  0
  5 50  1  0  0  0  0
  6  7  1  0  0  0  0
  7 12  2  0  0  0  0
  7  8  1  0  0  0  0
  8  9  2  0  0  0  0
  8 51  1  0  0  0  0
  9 10  1  0  0  0  0
  9 52  1  0  0  0  0
 10 11  2  0  0  0  0
 10 53  1  0  0  0  0
 11 12  1  0  0  0  0
 11 13  1  0  0  0  0
 12 54  1  0  0  0  0
 13 14  1  1  0  0  0
 13 19  1  0  0  0  0
 13 15  1  0  0  0  0
 15 16  2  0  0  0  0
 15 30  1  0  0  0  0
 16 17  1  0  0  0  0
 16 29  1  0  0  0  0
 17 18  2  0  0  0  0
 17 19  1  0  0  0  0
 19 20  1  0  0  0  0
 20 21  1  0  0  0  0
 20 55  1  0  0  0  0
 20 56  1  0  0  0  0
 21 22  1  0  0  0  0
 21 57  1  0  0  0  0
 21 58  1  0  0  0  0
 22 23  1  0  0  0  0
 22 59  1  0  0  0  0
 22 60  1  0  0  0  0
 23 28  1  0  0  0  0
 23 24  1  0  0  0  0
 24 25  1  0  0  0  0
 24 61  1  0  0  0  0
 24 62  1  0  0  0  0
 25 26  1  0  0  0  0
 25 63  1  0  0  0  0
 25 64  1  0  0  0  0
 26 27  1  0  0  0  0
 27 28  1  0  0  0  0
 27 65  1  0  0  0  0
 27 66  1  0  0  0  0
 28 67  1  0  0  0  0
 28 68  1  0  0  0  0
 30 31  2  0  0  0  0
 30 32  1  0  0  0  0
 32 33  2  0  0  0  0
 32 69  1  0  0  0  0
 33 34  1  0  0  0  0
 33 70  1  0  0  0  0
 34 39  2  0  0  0  0
 34 35  1  0  0  0  0
 35 36  2  0  0  0  0
 35 71  1  0  0  0  0
 36 37  1  0  0  0  0
 36 72  1  0  0  0  0
 37 38  2  0  0  0  0
 37 73  1  0  0  0  0
 38 39  1  0  0  0  0
 38 74  1  0  0  0  0
 39 75  1  0  0  0  0
M  CHG  1  29  -1
M  END
$$$$
ZINC45549654
 OpenBabel01252620473D

 43 44  0  0  0  0  0  0  0  0999 V2000
   -1.2824    1.7299   -0.7506 C   0  0  0  0  0  0  0  0  0  0  0  0
   -0.6045    0.3860   -0.4767 C   0  0  0  0  0  0  0  0  0  0  0  0
    0.0614   -0.1198   -1.7580 C   0  0  0  0  0  0  0  0  0  0  0  0
    0.7394   -1.4638   -1.4841 C   0  0  0  0  0  0  0  0  0  0  0  0
    1.3770   -1.9481   -2.7110 N   0  0  0  0  0  0  0  0  0  0  0  0
    2.7653   -1.5861   -3.0071 C   0  0  0  0  0  0  0  0  0  0  0  0
    0.6863   -2.7267   -3.5673 C   0  0  0  0  0  0  0  0  0  0  0  0
   -0.4949   -2.9398   -3.3771 O   0  0  0  0  0  0  0  0  0  0  0  0
    1.3667   -3.3224   -4.7397 C   0  0  0  0  0  0  0  0  0  0  0  0
    2.7008   -3.7352   -4.6335 C   0  0  0  0  0  0  0  0  0  0  0  0
    3.3450   -4.2871   -5.7034 C   0  0  0  0  0  0  0  0  0  0  0  0
    2.6720   -4.4429   -6.9147 C   0  0  0  0  0  0  0  0  0  0  0  0
    1.3258   -4.0315   -7.0387 C   0  0  0  0  0  0  0  0  0  0  0  0
    0.6755   -3.4728   -5.9347 C   0  0  0  0  0  0  0  0  0  0  0  0
    0.6931   -4.1923   -8.2247 N   0  0  0  0  0  0  0  0  0  0  0  0
    1.2994   -4.7200   -9.2594 C   0  0  0  0  0  0  0  0  0  0  0  0
    0.3985   -4.8904  -10.7641 S   0  0  0  0  0  1  0  0  0  0  0  0
    2.5972   -5.1436   -9.2261 N   0  0  0  0  0  0  0  0  0  0  0  0
    3.3278   -5.0321   -8.0929 C   0  0  0  0  0  0  0  0  0  0  0  0
    4.4854   -5.4053   -8.0496 O   0  0  0  0  0  0  0  0  0  0  0  0
    3.2031   -5.7239  -10.4271 C   0  0  0  0  0  0  0  0  0  0  0  0
    3.8427   -4.6316  -11.2449 C   0  0  0  0  0  0  0  0  0  0  0  0
    5.1061   -4.7187  -11.5801 C   0  0  0  0  0  0  0  0  0  0  0  0
   -0.5364    2.4523   -1.0819 H   0  0  0  0  0  0  0  0  0  0  0  0
   -2.0370    1.6047   -1.5271 H   0  0  0  0  0  0  0  0  0  0  0  0
   -1.7568    2.0903    0.1622 H   0  0  0  0  0  0  0  0  0  0  0  0
    0.1501    0.5112    0.2999 H   0  0  0  0  0  0  0  0  0  0  0  0
   -1.3504   -0.3364   -0.1454 H   0  0  0  0  0  0  0  0  0  0  0  0
   -0.6931   -0.2451   -2.5346 H   0  0  0  0  0  0  0  0  0  0  0  0
    0.8074    0.6026   -2.0893 H   0  0  0  0  0  0  0  0  0  0  0  0
    1.4939   -1.3386   -0.7076 H   0  0  0  0  0  0  0  0  0  0  0  0
   -0.0066   -2.1862   -1.1528 H   0  0  0  0  0  0  0  0  0  0  0  0
    3.4372   -2.2856   -2.5098 H   0  0  0  0  0  0  0  0  0  0  0  0
    2.9298   -1.6273   -4.0838 H   0  0  0  0  0  0  0  0  0  0  0  0
    2.9619   -0.5759   -2.6479 H   0  0  0  0  0  0  0  0  0  0  0  0
    3.2249   -3.6156   -3.6968 H   0  0  0  0  0  0  0  0  0  0  0  0
    4.3740   -4.6021   -5.6117 H   0  0  0  0  0  0  0  0  0  0  0  0
   -0.3544   -3.1570   -6.0116 H   0  0  0  0  0  0  0  0  0  0  0  0
    3.9609   -6.4513  -10.1365 H   0  0  0  0  0  0  0  0  0  0  0  0
    2.4334   -6.2181  -11.0198 H   0  0  0  0  0  0  0  0  0  0  0  0
    3.2596   -3.7769  -11.5547 H   0  0  0  0  0  0  0  0  0  0  0  0
    5.5645   -3.9359  -12.1662 H   0  0  0  0  0  0  0  0  0  0  0  0
    5.6893   -5.5733  -11.2704 H   0  0  0  0  0  0  0  0  0  0  0  0
  1  2  1  0  0  0  0
  1 24  1  0  0  0  0
  1 25  1  0  0  0  0
  1 26  1  0  0  0  0
  2  3  1  0  0  0  0
  2 27  1  0  0  0  0
  2 28  1  0  0  0  0
  3  4  1  0  0  0  0
  3 29  1  0  0  0  0
  3 30  1  0  0  0  0
  4  5  1  0  0  0  0
  4 31  1  0  0  0  0
  4 32  1  0  0  0  0
  5  6  1  0  0  0  0
  5  7  1  0  0  0  0
  6 33  1  0  0  0  0
  6 34  1  0  0  0  0
  6 35  1  0  0  0  0
  7  8  2  0  0  0  0
  7  9  1  0  0  0  0
  9 14  2  0  0  0  0
  9 10  1  0  0  0  0
 10 11  2  0  0  0  0
 10 36  1  0  0  0  0
 11 12  1  0  0  0  0
 11 37  1  0  0  0  0
 12 19  1  0  0  0  0
 12 13  2  0  0  0  0
 13 14  1  0  0  0  0
 13 15  1  0  0  0  0
 14 38  1  0  0  0  0
 15 16  2  0  0  0  0
 16 17  1  0  0  0  0
 16 18  1  0  0  0  0
 18 19  1  0  0  0  0
 18 21  1  0  0  0  0
 19 20  2  0  0  0  0
 21 22  1  0  0  0  0
 21 39  1  0  0  0  0
 21 40  1  0  0  0  0
 22 23  2  0  0  0  0
 22 41  1  0  0  0  0
 23 42  1  0  0  0  0
 23 43  1  0  0  0  0
M  END
$$$$
ZINC26471007
 OpenBabel01252620473D

 61 63  0  0  1  0  0  0  0  0999 V2000
    0.3265    1.4412    0.2849 C   0  0  0  0  0  0  0  0  0  0  0  0
    0.1212   -0.0654    0.1150 C   0  0  0  0  0  0  0  0  0  0  0  0
    0.8222   -0.5137   -1.0468 O   0  0  0  0  0  0  0  0  0  0  0  0
    0.7432   -1.8265   -1.3405 C   0  0  0  0  0  0  0  0  0  0  0  0
    1.3953   -2.3254   -2.4468 C   0  0  0  0  0  0  0  0  0  0  0  0
    1.3235   -3.7975   -2.8122 C   0  0  2  0  0  0  0  0  0  0  0  0
    1.7049   -4.3762   -1.9709 H   0  0  0  0  0  0  0  0  0  0  0  0
    2.0892   -4.2085   -4.0565 C   0  0  0  0  0  0  0  0  0  0  0  0
    2.7674   -3.2344   -4.7315 C   0  0  0  0  0  0  0  0  0  0  0  0
    2.7738   -1.9701   -4.3374 N   0  0  0  0  0  0  0  0  0  0  0  0
    2.1461   -1.4986   -3.2843 C   0  0  0  0  0  0  0  0  0  0  0  0
    2.2438   -0.0282   -2.9688 C   0  0  0  0  0  0  0  0  0  0  0  0
    3.0557    0.6170   -3.9519 O   0  0  0  0  0  0  0  0  0  0  0  0
    3.2135    2.0220   -3.7443 C   0  0  0  0  0  0  0  0  0  0  0  0
    4.0961    2.6049   -4.8498 C   0  0  2  0  0  0  0  0  0  0  0  0
    5.4219    1.8429   -4.8990 C   0  0  0  0  0  0  0  0  0  0  0  0
    4.3635    4.0603   -4.5642 C   0  0  0  0  0  0  0  0  0  0  0  0
    4.5711    5.0176   -5.4860 C   0  0  0  0  0  0  0  0  0  0  0  0
    4.7798    6.2258   -4.7819 C   0  0  0  0  0  0  0  0  0  0  0  0
    4.6872    5.9345   -3.4720 C   0  0  0  0  0  0  0  0  0  0  0  0
    4.4292    4.6224   -3.3462 O   0  0  0  0  0  0  0  0  0  0  0  0
    3.4285    2.4811   -6.1072 O   0  0  0  0  0  0  0  0  0  0  0  0
    3.5374   -3.6121   -5.9706 C   0  0  0  0  0  0  0  0  0  0  0  0
    2.1003   -5.5433   -4.4976 C   0  0  0  0  0  0  0  0  0  0  0  0
    2.6216   -5.8291   -5.5606 O   0  0  0  0  0  0  0  0  0  0  0  0
    1.5327   -6.5088   -3.7426 O   0  0  0  0  0  0  0  0  0  0  0  0
    1.5806   -7.8430   -4.2522 C   0  0  0  0  0  0  0  0  0  0  0  0
   -0.1247   -4.1627   -3.0131 C   0  0  0  0  0  0  0  0  0  0  0  0
   -0.8694   -3.5255   -3.9881 C   0  0  0  0  0  0  0  0  0  0  0  0
   -2.1978   -3.8598   -4.1731 C   0  0  0  0  0  0  0  0  0  0  0  0
   -2.7834   -4.8315   -3.3831 C   0  0  0  0  0  0  0  0  0  0  0  0
   -2.0399   -5.4700   -2.4072 C   0  0  0  0  0  0  0  0  0  0  0  0
   -0.7073   -5.1393   -2.2260 C   0  0  0  0  0  0  0  0  0  0  0  0
    0.2295   -5.9453   -1.0067 Cl  0  0  0  0  0  0  0  0  0  0  0  0
   -2.7747   -6.6901   -1.4148 Cl  0  0  0  0  0  0  0  0  0  0  0  0
    0.0263   -2.6514   -0.5520 O   0  5  0  0  0  0  0  0  0  0  0  0
    1.3898    1.6525    0.3980 H   0  0  0  0  0  0  0  0  0  0  0  0
   -0.0559    1.9613   -0.5934 H   0  0  0  0  0  0  0  0  0  0  0  0
   -0.2082    1.7831    1.1711 H   0  0  0  0  0  0  0  0  0  0  0  0
    0.5036   -0.5856    0.9933 H   0  0  0  0  0  0  0  0  0  0  0  0
   -0.9421   -0.2768    0.0019 H   0  0  0  0  0  0  0  0  0  0  0  0
    1.2466    0.4118   -2.9754 H   0  0  0  0  0  0  0  0  0  0  0  0
    2.6923    0.1031   -1.9840 H   0  0  0  0  0  0  0  0  0  0  0  0
    2.2364    2.5046   -3.7670 H   0  0  0  0  0  0  0  0  0  0  0  0
    3.6821    2.1958   -2.7757 H   0  0  0  0  0  0  0  0  0  0  0  0
    5.2285    0.7903   -5.1056 H   0  0  0  0  0  0  0  0  0  0  0  0
    6.0506    2.2582   -5.6866 H   0  0  0  0  0  0  0  0  0  0  0  0
    5.9310    1.9373   -3.9399 H   0  0  0  0  0  0  0  0  0  0  0  0
    4.5777    4.8881   -6.5582 H   0  0  0  0  0  0  0  0  0  0  0  0
    4.9762    7.1963   -5.2131 H   0  0  0  0  0  0  0  0  0  0  0  0
    4.7976    6.6372   -2.6593 H   0  0  0  0  0  0  0  0  0  0  0  0
    2.5788    2.9408   -6.1484 H   0  0  0  0  0  0  0  0  0  0  0  0
    2.8643   -3.6221   -6.8278 H   0  0  0  0  0  0  0  0  0  0  0  0
    4.3315   -2.8850   -6.1406 H   0  0  0  0  0  0  0  0  0  0  0  0
    3.9735   -4.6025   -5.8396 H   0  0  0  0  0  0  0  0  0  0  0  0
    1.0679   -7.8835   -5.2133 H   0  0  0  0  0  0  0  0  0  0  0  0
    2.6197   -8.1454   -4.3818 H   0  0  0  0  0  0  0  0  0  0  0  0
    1.0906   -8.5178   -3.5504 H   0  0  0  0  0  0  0  0  0  0  0  0
   -0.4131   -2.7658   -4.6054 H   0  0  0  0  0  0  0  0  0  0  0  0
   -2.7787   -3.3614   -4.9351 H   0  0  0  0  0  0  0  0  0  0  0  0
   -3.8215   -5.0917   -3.5277 H   0  0  0  0  0  0  0  0  0  0  0  0
  1  2  1  0  0  0  0
  1 37  1  0  0  0  0
  1 38  1  0  0  0  0
  1 39  1  0  0  0  0
  2  3  1  0  0  0  0
  2 40  1  0  0  0  0
  2 41  1  0  0  0  0
  3  4  1  0  0  0  0
  4  5  2  0  0  0  0
  4 36  1  0  0  0  0
  5 11  1  0  0  0  0
  5  6  1  0  0  0  0
  6  7  1  1  0  0  0
  6  8  1  0  0  0  0
  6 28  1  0  0  0  0
  8  9  2  0  0  0  0
  8 24  1  0  0  0  0
  9 10  1  0  0  0  0
  9 23  1  0  0  0  0
 10 11  2  0  0  0  0
 11 12  1  0  0  0  0
 12 13  1  0  0  0  0
 12 42  1  0  0  0  0
 12 43  1  0  0  0  0
 13 14  1  0  0  0  0
 14 15  1  0  0  0  0
 14 44  1  0  0  0  0
 14 45  1  0  0  0  0
 15 16  1  0  0  0  0
 15 17  1  0  0  0  0
 15 22  1  6  0  0  0
 16 46  1  0  0  0  0
 16 47  1  0  0  0  0
 16 48  1  0  0  0  0
 17 21  1  0  0  0  0
 17 18  2  0  0  0  0
 18 19  1  0  0  0  0
 18 49  1  0  0  0  0
 19 20  2  0  0  0  0
 19 50  1  0  0  0  0
 20 21  1  0  0  0  0
 20 51  1  0  0  0  0
 22 52  1  0  0  0  0
 23 53  1  0  0  0  0
 23 54  1  0  0  0  0
 23 55  1  0  0  0  0
 24 25  2  0  0  0  0
 24 26  1  0  0  0  0
 26 27  1  0  0  0  0
 27 56  1  0  0  0  0
 27 57  1  0  0  0  0
 27 58  1  0  0  0  0
 28 33  2  0  0  0  0
 28 29  1  0  0  0  0
 29 30  2  0  0  0  0
 29 59  1  0  0  0  0
 30 31  1  0  0  0  0
 30 60  1  0  0  0  0
 31 32  2  0  0  0  0
 31 61  1  0  0  0  0
 32 33  1  0  0  0  0
 32 35  1  0  0  0  0
 33 34  1  0  0  0  0
M  CHG  1  36  -1
M  END
$$$$
ZINC13233877
 OpenBabel01252620473D

 53 54  0  0  0  0  0  0  0  0999 V2000
    5.3674   12.4627    3.0057 C   0  0  0  0  0  0  0  0  0  0  0  0
    4.2894   11.4867    3.4814 C   0  0  0  0  0  0  0  0  0  0  0  0
    4.2447   10.3319    2.5811 N   0  0  0  0  0  0  0  0  0  0  0  0
    3.3644    9.3362    2.8054 C   0  0  0  0  0  0  0  0  0  0  0  0
    2.6094    9.3963    3.7527 O   0  0  0  0  0  0  0  0  0  0  0  0
    3.3184    8.1483    1.8793 C   0  0  0  0  0  0  0  0  0  0  0  0
    2.2862    7.2137    2.3348 N   0  0  0  0  0  0  0  0  0  0  0  0
    2.0643    6.0712    1.6552 C   0  0  0  0  0  0  0  0  0  0  0  0
    2.7191    5.8167    0.6666 O   0  0  0  0  0  0  0  0  0  0  0  0
    1.0025    5.1099    2.1237 C   0  0  0  0  0  0  0  0  0  0  0  0
    0.9472    3.6831    1.0114 S   0  0  0  0  0  0  0  0  0  0  0  0
   -0.3402    2.7514    1.7726 C   0  0  0  0  0  0  0  0  0  0  0  0
   -0.9126    3.2381    2.8460 N   0  0  0  0  0  0  0  0  0  0  0  0
   -1.9038    2.5725    3.4842 C   0  0  0  0  0  0  0  0  0  0  0  0
   -2.5097    3.0913    4.6321 C   0  0  0  0  0  0  0  0  0  0  0  0
   -3.5234    2.3726    5.2531 C   0  0  0  0  0  0  0  0  0  0  0  0
   -3.9387    1.1383    4.7365 C   0  0  0  0  0  0  0  0  0  0  0  0
   -3.3539    0.6216    3.6162 C   0  0  0  0  0  0  0  0  0  0  0  0
   -2.3344    1.3259    2.9767 C   0  0  0  0  0  0  0  0  0  0  0  0
   -1.6777    0.8063    1.7666 C   0  0  0  0  0  0  0  0  0  0  0  0
   -2.0034   -0.2613    1.2813 O   0  0  0  0  0  0  0  0  0  0  0  0
   -0.6984    1.5583    1.2133 N   0  0  0  0  0  0  0  0  0  0  0  0
   -0.0127    1.0858    0.0080 C   0  0  0  0  0  0  0  0  0  0  0  0
   -0.7527    1.5927   -1.2315 C   0  0  0  0  0  0  0  0  0  0  0  0
   -0.0366    1.0992   -2.4903 C   0  0  0  0  0  0  0  0  0  0  0  0
   -0.7277    1.5726   -3.6480 O   0  0  0  0  0  0  0  0  0  0  0  0
   -0.1375    1.1657   -4.8842 C   0  0  0  0  0  0  0  0  0  0  0  0
   -4.1697    2.9149    6.4685 C   0  0  0  0  0  0  0  0  0  0  0  0
   -3.8135    3.9846    6.9198 O   0  0  0  0  0  0  0  0  0  0  0  0
    6.3362   11.9631    3.0072 H   0  0  0  0  0  0  0  0  0  0  0  0
    5.1334   12.7985    1.9955 H   0  0  0  0  0  0  0  0  0  0  0  0
    5.4007   13.3220    3.6755 H   0  0  0  0  0  0  0  0  0  0  0  0
    3.3207   11.9864    3.4799 H   0  0  0  0  0  0  0  0  0  0  0  0
    4.5235   11.1510    4.4916 H   0  0  0  0  0  0  0  0  0  0  0  0
    4.8485   10.2838    1.8235 H   0  0  0  0  0  0  0  0  0  0  0  0
    4.2871    7.6486    1.8808 H   0  0  0  0  0  0  0  0  0  0  0  0
    3.0843    8.4840    0.8691 H   0  0  0  0  0  0  0  0  0  0  0  0
    1.7624    7.4173    3.1255 H   0  0  0  0  0  0  0  0  0  0  0  0
    0.0338    5.6095    2.1222 H   0  0  0  0  0  0  0  0  0  0  0  0
    1.2366    4.7741    3.1340 H   0  0  0  0  0  0  0  0  0  0  0  0
   -2.1926    4.0428    5.0327 H   0  0  0  0  0  0  0  0  0  0  0  0
   -4.7280    0.5903    5.2294 H   0  0  0  0  0  0  0  0  0  0  0  0
   -3.6806   -0.3309    3.2258 H   0  0  0  0  0  0  0  0  0  0  0  0
    0.0021   -0.0041    0.0020 H   0  0  0  0  0  0  0  0  0  0  0  0
    1.0099    1.4631    0.0003 H   0  0  0  0  0  0  0  0  0  0  0  0
   -1.7753    1.2154   -1.2238 H   0  0  0  0  0  0  0  0  0  0  0  0
   -0.7675    2.6825   -1.2255 H   0  0  0  0  0  0  0  0  0  0  0  0
    0.9860    1.4765   -2.4981 H   0  0  0  0  0  0  0  0  0  0  0  0
   -0.0218    0.0093   -2.4963 H   0  0  0  0  0  0  0  0  0  0  0  0
    0.8830    1.5444   -4.9416 H   0  0  0  0  0  0  0  0  0  0  0  0
   -0.1248    0.0772   -4.9399 H   0  0  0  0  0  0  0  0  0  0  0  0
   -0.7205    1.5652   -5.7140 H   0  0  0  0  0  0  0  0  0  0  0  0
   -5.1531    2.2223    7.0745 O   0  0  0  0  0  1  0  0  0  0  0  0
  1  2  1  0  0  0  0
  1 30  1  0  0  0  0
  1 31  1  0  0  0  0
  1 32  1  0  0  0  0
  2  3  1  0  0  0  0
  2 33  1  0  0  0  0
  2 34  1  0  0  0  0
  3  4  1  0  0  0  0
  3 35  1  0  0  0  0
  4  5  2  0  0  0  0
  4  6  1  0  0  0  0
  6  7  1  0  0  0  0
  6 36  1  0  0  0  0
  6 37  1  0  0  0  0
  7  8  1  0  0  0  0
  7 38  1  0  0  0  0
  8  9  2  0  0  0  0
  8 10  1  0  0  0  0
 10 11  1  0  0  0  0
 10 39  1  0  0  0  0
 10 40  1  0  0  0  0
 11 12  1  0  0  0  0
 12 22  1  0  0  0  0
 12 13  2  0  0  0  0
 13 14  1  0  0  0  0
 14 19  2  0  0  0  0
 14 15  1  0  0  0  0
 15 16  2  0  0  0  0
 15 41  1  0  0  0  0
 16 17  1  0  0  0  0
 16 28  1  0  0  0  0
 17 18  2  0  0  0  0
 17 42  1  0  0  0  0
 18 19  1  0  0  0  0
 18 43  1  0  0  0  0
 19 20  1  0  0  0  0
 20 21  2  0  0  0  0
 20 22  1  0  0  0  0
 22 23  1  0  0  0  0
 23 24  1  0  0  0  0
 23 44  1  0  0  0  0
 23 45  1  0  0  0  0
 24 25  1  0  0  0  0
 24 46  1  0  0  0  0
 24 47  1  0  0  0  0
 25 26  1  0  0  0  0
 25 48  1  0  0  0  0
 25 49  1  0  0  0  0
 26 27  1  0  0  0  0
 27 50  1  0  0  0  0
 27 51  1  0  0  0  0
 27 52  1  0  0  0  0
 28 29  2  0  0  0  0
 28 53  1  0  0  0  0
M  END
$$$$
ZINC13255415
 OpenBabel01252620473D

 55 57  0  0  0  0  0  0  0  0999 V2000
   -4.7923   -0.0689   -5.4305 C   0  0  0  0  0  0  0  0  0  0  0  0
   -3.5251   -0.3179   -4.8187 O   0  0  0  0  0  0  0  0  0  0  0  0
   -3.5792   -0.4315   -3.3953 C   0  0  0  0  0  0  0  0  0  0  0  0
   -2.1740   -0.6962   -2.8510 C   0  0  0  0  0  0  0  0  0  0  0  0
   -2.2319   -0.8179   -1.3269 C   0  0  0  0  0  0  0  0  0  0  0  0
   -0.8864   -1.0713   -0.8058 N   0  0  0  0  0  0  0  0  0  0  0  0
    0.0243   -0.1383   -0.3665 C   0  0  0  0  0  0  0  0  0  0  0  0
    1.0940   -0.7951    0.0175 N   0  0  0  0  0  0  0  0  0  0  0  0
    0.9191   -2.0567   -0.1534 N   0  0  0  0  0  0  0  0  0  0  0  0
   -0.2735   -2.2828   -0.6574 C   0  0  0  0  0  0  0  0  0  0  0  0
   -0.9569   -3.8561   -1.0602 S   0  0  0  0  0  0  0  0  0  0  0  0
    0.4213   -4.9286   -0.5841 C   0  0  0  0  0  0  0  0  0  0  0  0
    0.0534   -6.3660   -0.8477 C   0  0  0  0  0  0  0  0  0  0  0  0
   -1.0334   -6.6386   -1.3118 O   0  0  0  0  0  0  0  0  0  0  0  0
    0.9323   -7.3487   -0.5678 N   0  0  0  0  0  0  0  0  0  0  0  0
    0.6309   -8.6693   -0.9000 C   0  0  0  0  0  0  0  0  0  0  0  0
   -0.6816   -9.1240   -0.8144 C   0  0  0  0  0  0  0  0  0  0  0  0
   -0.9844  -10.4248   -1.1458 C   0  0  0  0  0  0  0  0  0  0  0  0
    0.0320  -11.2942   -1.5599 C   0  0  0  0  0  0  0  0  0  0  0  0
    1.3519  -10.8338   -1.6395 C   0  0  0  0  0  0  0  0  0  0  0  0
    1.6446   -9.5300   -1.3107 C   0  0  0  0  0  0  0  0  0  0  0  0
   -0.2855  -12.6856   -1.9095 C   0  0  0  0  0  0  0  0  0  0  0  0
   -1.5598  -13.1277   -1.8320 C   0  0  0  0  0  0  0  0  0  0  0  0
   -1.8661  -14.4703   -2.1693 C   0  0  0  0  0  0  0  0  0  0  0  0
   -0.9815  -15.2242   -2.5285 O   0  0  0  0  0  0  0  0  0  0  0  0
   -0.1679    1.3270   -0.3282 C   0  0  0  0  0  0  0  0  0  0  0  0
   -1.1511    1.9255   -1.1178 C   0  0  0  0  0  0  0  0  0  0  0  0
   -1.3290    3.2927   -1.0742 C   0  0  0  0  0  0  0  0  0  0  0  0
   -0.5274    4.0723   -0.2573 C   0  0  0  0  0  0  0  0  0  0  0  0
    0.4531    3.4848    0.5243 C   0  0  0  0  0  0  0  0  0  0  0  0
    0.6369    2.1181    0.4932 C   0  0  0  0  0  0  0  0  0  0  0  0
   -0.7524    5.7931   -0.2132 Cl  0  0  0  0  0  0  0  0  0  0  0  0
   -5.4746   -0.8867   -5.1988 H   0  0  0  0  0  0  0  0  0  0  0  0
   -5.2027    0.8659   -5.0486 H   0  0  0  0  0  0  0  0  0  0  0  0
   -4.6662    0.0042   -6.5107 H   0  0  0  0  0  0  0  0  0  0  0  0
   -4.2364   -1.2569   -3.1214 H   0  0  0  0  0  0  0  0  0  0  0  0
   -3.9645    0.4957   -2.9711 H   0  0  0  0  0  0  0  0  0  0  0  0
   -1.5169    0.1292   -3.1249 H   0  0  0  0  0  0  0  0  0  0  0  0
   -1.7888   -1.6235   -3.2751 H   0  0  0  0  0  0  0  0  0  0  0  0
   -2.8891   -1.6433   -1.0530 H   0  0  0  0  0  0  0  0  0  0  0  0
   -2.6172    0.1094   -0.9028 H   0  0  0  0  0  0  0  0  0  0  0  0
    1.3039   -4.6665   -1.1675 H   0  0  0  0  0  0  0  0  0  0  0  0
    0.6346   -4.7968    0.4766 H   0  0  0  0  0  0  0  0  0  0  0  0
    1.7745   -7.1375   -0.1353 H   0  0  0  0  0  0  0  0  0  0  0  0
   -1.4644   -8.4537   -0.4913 H   0  0  0  0  0  0  0  0  0  0  0  0
   -2.0039  -10.7757   -1.0826 H   0  0  0  0  0  0  0  0  0  0  0  0
    2.1391  -11.5010   -1.9581 H   0  0  0  0  0  0  0  0  0  0  0  0
    2.6624   -9.1740   -1.3718 H   0  0  0  0  0  0  0  0  0  0  0  0
    0.4999  -13.3550   -2.2284 H   0  0  0  0  0  0  0  0  0  0  0  0
   -2.3451  -12.4584   -1.5131 H   0  0  0  0  0  0  0  0  0  0  0  0
   -1.7741    1.3190   -1.7584 H   0  0  0  0  0  0  0  0  0  0  0  0
   -2.0919    3.7566   -1.6818 H   0  0  0  0  0  0  0  0  0  0  0  0
    1.0755    4.0979    1.1593 H   0  0  0  0  0  0  0  0  0  0  0  0
    1.4022    1.6610    1.1030 H   0  0  0  0  0  0  0  0  0  0  0  0
   -3.1388  -14.9119   -2.0919 O   0  0  0  0  0  1  0  0  0  0  0  0
  1  2  1  0  0  0  0
  1 33  1  0  0  0  0
  1 34  1  0  0  0  0
  1 35  1  0  0  0  0
  2  3  1  0  0  0  0
  3  4  1  0  0  0  0
  3 36  1  0  0  0  0
  3 37  1  0  0  0  0
  4  5  1  0  0  0  0
  4 38  1  0  0  0  0
  4 39  1  0  0  0  0
  5  6  1  0  0  0  0
  5 40  1  0  0  0  0
  5 41  1  0  0  0  0
  6 10  1  0  0  0  0
  6  7  1  0  0  0  0
  7  8  2  0  0  0  0
  7 26  1  0  0  0  0
  8  9  1  0  0  0  0
  9 10  2  0  0  0  0
 10 11  1  0  0  0  0
 11 12  1  0  0  0  0
 12 13  1  0  0  0  0
 12 42  1  0  0  0  0
 12 43  1  0  0  0  0
 13 14  2  0  0  0  0
 13 15  1  0  0  0  0
 15 16  1  0  0  0  0
 15 44  1  0  0  0  0
 16 21  2  0  0  0  0
 16 17  1  0  0  0  0
 17 18  2  0  0  0  0
 17 45  1  0  0  0  0
 18 19  1  0  0  0  0
 18 46  1  0  0  0  0
 19 20  2  0  0  0  0
 19 22  1  0  0  0  0
 20 21  1  0  0  0  0
 20 47  1  0  0  0  0
 21 48  1  0  0  0  0
 22 23  2  0  0  0  0
 22 49  1  0  0  0  0
 23 24  1  0  0  0  0
 23 50  1  0  0  0  0
 24 25  2  0  0  0  0
 24 55  1  0  0  0  0
 26 31  2  0  0  0  0
 26 27  1  0  0  0  0
 27 28  2  0  0  0  0
 27 51  1  0  0  0  0
 28 29  1  0  0  0  0
 28 52  1  0  0  0  0
 29 30  2  0  0  0  0
 29 32  1  0  0  0  0
 30 31  1  0  0  0  0
 30 53  1  0  0  0  0
 31 54  1  0  0  0  0
M  END
$$$$
ZINC49501858
 OpenBabel01252620473D

 33 33  0  0  1  0  0  0  0  0999 V2000
   -0.0184    1.5028    0.0103 C   0  0  0  0  0  0  0  0  0  0  0  0
    0.0021   -0.0041    0.0020 C   0  0  0  0  0  0  0  0  0  0  0  0
   -1.0392   -0.8719    0.0017 C   0  0  0  0  0  0  0  0  0  0  0  0
   -0.7802   -2.2296   -0.0075 C   0  0  0  0  0  0  0  0  0  0  0  0
    0.5074   -2.6532   -0.0160 C   0  0  0  0  0  0  0  0  0  0  0  0
    1.4039   -1.1093   -0.0179 S   0  0  0  0  0  0  0  0  0  0  0  0
    1.0430   -4.0617   -0.0269 C   0  0  0  0  0  0  0  0  0  0  0  0
   -2.1040   -3.3924   -0.0077 S   0  0  0  0  0  0  0  0  0  0  0  0
   -1.8131   -4.3392    1.0113 O   0  0  0  0  0  0  0  0  0  0  0  0
   -3.3077   -2.6375   -0.0248 O   0  0  0  0  0  0  0  0  0  0  0  0
   -2.0375   -4.2099   -1.4463 N   0  0  0  0  0  0  0  0  0  0  0  0
   -2.9044   -5.1297   -1.7064 C   0  0  0  0  0  0  0  0  0  0  0  0
   -3.8650   -5.4254   -0.8063 O   0  5  0  0  0  0  0  0  0  0  0  0
   -2.8439   -5.8736   -3.0156 C   0  0  2  0  0  0  0  0  0  0  0  0
   -1.8030   -6.0028   -3.3123 H   0  0  0  0  0  0  0  0  0  0  0  0
   -3.5853   -5.0759   -4.0902 C   0  0  0  0  0  0  0  0  0  0  0  0
   -3.6241   -7.4999   -2.8236 S   0  0  0  0  0  0  0  0  0  0  0  0
   -2.8472   -8.2667   -1.9138 O   0  0  0  0  0  0  0  0  0  0  0  0
   -5.0069   -7.3067   -2.5591 O   0  0  0  0  0  0  0  0  0  0  0  0
   -3.4521   -8.2248   -4.4775 C   0  0  0  0  0  0  0  0  0  0  0  0
    1.0042    1.8801    0.0026 H   0  0  0  0  0  0  0  0  0  0  0  0
   -0.5455    1.8639   -0.8728 H   0  0  0  0  0  0  0  0  0  0  0  0
   -0.5286    1.8543    0.9071 H   0  0  0  0  0  0  0  0  0  0  0  0
   -2.0560   -0.5079    0.0090 H   0  0  0  0  0  0  0  0  0  0  0  0
    1.1674   -4.3952   -1.0571 H   0  0  0  0  0  0  0  0  0  0  0  0
    2.0064   -4.0880    0.4823 H   0  0  0  0  0  0  0  0  0  0  0  0
    0.3427   -4.7207    0.4863 H   0  0  0  0  0  0  0  0  0  0  0  0
   -3.1164   -4.0987   -4.2056 H   0  0  0  0  0  0  0  0  0  0  0  0
   -3.5415   -5.6140   -5.0371 H   0  0  0  0  0  0  0  0  0  0  0  0
   -4.6261   -4.9468   -3.7935 H   0  0  0  0  0  0  0  0  0  0  0  0
   -2.3954   -8.2928   -4.7363 H   0  0  0  0  0  0  0  0  0  0  0  0
   -3.8930   -9.2216   -4.4850 H   0  0  0  0  0  0  0  0  0  0  0  0
   -3.9645   -7.5954   -5.2051 H   0  0  0  0  0  0  0  0  0  0  0  0
  1  2  1  0  0  0  0
  1 21  1  0  0  0  0
  1 22  1  0  0  0  0
  1 23  1  0  0  0  0
  2  6  1  0  0  0  0
  2  3  2  0  0  0  0
  3  4  1  0  0  0  0
  3 24  1  0  0  0  0
  4  5  2  0  0  0  0
  4  8  1  0  0  0  0
  5  6  1  0  0  0  0
  5  7  1  0  0  0  0
  7 25  1  0  0  0  0
  7 26  1  0  0  0  0
  7 27  1  0  0  0  0
  8  9  2  0  0  0  0
  8 10  2  0  0  0  0
  8 11  1  0  0  0  0
 11 12  2  0  0  0  0
 12 13  1  0  0  0  0
 12 14  1  0  0  0  0
 14 15  1  6  0  0  0
 14 16  1  0  0  0  0
 14 17  1  0  0  0  0
 16 28  1  0  0  0  0
 16 29  1  0  0  0  0
 16 30  1  0  0  0  0
 17 18  2  0  0  0  0
 17 19  2  0  0  0  0
 17 20  1  0  0  0  0
 20 31  1  0  0  0  0
 20 32  1  0  0  0  0
 20 33  1  0  0  0  0
M  CHG  1  13  -1
M  END
$$$$
ZINC39497275
 OpenBabel01252620473D

 36 36  0  0  1  0  0  0  0  0999 V2000
    1.1386   -0.5759   -4.1416 C   0  0  0  0  0  0  0  0  0  0  0  0
    0.2021    0.0266   -3.0923 C   0  0  0  0  0  0  0  0  0  0  0  0
   -1.2354   -0.4112   -3.3802 C   0  0  0  0  0  0  0  0  0  0  0  0
    0.6911   -0.5498   -1.4433 S   0  0  0  0  0  0  0  0  0  0  0  0
   -0.1034    0.0817   -0.4486 O   0  0  0  0  0  0  0  0  0  0  0  0
    0.8595   -1.9607   -1.4480 O   0  0  0  0  0  0  0  0  0  0  0  0
    2.3125    0.0957   -1.2003 C   0  0  0  0  0  0  0  0  0  0  0  0
    3.3879   -0.7638   -1.0794 C   0  0  0  0  0  0  0  0  0  0  0  0
    4.6605   -0.2586   -0.8892 C   0  0  0  0  0  0  0  0  0  0  0  0
    4.8614    1.1078   -0.8190 C   0  0  0  0  0  0  0  0  0  0  0  0
    3.7894    1.9719   -0.9393 C   0  0  0  0  0  0  0  0  0  0  0  0
    2.5111    1.4666   -1.1361 C   0  0  0  0  0  0  0  0  0  0  0  0
    1.4556    2.3140   -1.2604 O   0  5  0  0  0  0  0  0  0  0  0  0
    4.0417    3.6872   -0.8512 Cl  0  0  0  0  0  0  0  0  0  0  0  0
    6.2500    1.6551   -0.6106 C   0  0  1  0  0  0  0  0  0  0  0  0
    6.2233    2.4324    0.1530 H   0  0  0  0  0  0  0  0  0  0  0  0
    7.1800    0.5275   -0.1584 C   0  0  0  0  0  0  0  0  0  0  0  0
    8.5369    1.0960    0.1680 C   0  0  0  0  0  0  0  0  0  0  0  0
    9.0301    0.8971    1.2522 O   0  0  0  0  0  0  0  0  0  0  0  0
    6.7451    2.2220   -1.8675 N   0  0  0  0  0  0  0  0  0  0  0  0
    6.8055    1.4559   -2.9747 C   0  0  0  0  0  0  0  0  0  0  0  0
    6.3641    0.3264   -2.9554 O   0  0  0  0  0  0  0  0  0  0  0  0
    2.1481   -0.1940   -3.9897 H   0  0  0  0  0  0  0  0  0  0  0  0
    1.1423   -1.6616   -4.0446 H   0  0  0  0  0  0  0  0  0  0  0  0
    0.7924   -0.3013   -5.1380 H   0  0  0  0  0  0  0  0  0  0  0  0
    0.2653    1.1141   -3.1306 H   0  0  0  0  0  0  0  0  0  0  0  0
   -1.2985   -1.4987   -3.3419 H   0  0  0  0  0  0  0  0  0  0  0  0
   -1.9025    0.0180   -2.6326 H   0  0  0  0  0  0  0  0  0  0  0  0
   -1.5292   -0.0649   -4.3710 H   0  0  0  0  0  0  0  0  0  0  0  0
    3.2338   -1.8314   -1.1332 H   0  0  0  0  0  0  0  0  0  0  0  0
    5.4993   -0.9323   -0.7950 H   0  0  0  0  0  0  0  0  0  0  0  0
    6.7646    0.0472    0.7276 H   0  0  0  0  0  0  0  0  0  0  0  0
    7.2764   -0.2068   -0.9582 H   0  0  0  0  0  0  0  0  0  0  0  0
    9.0684    1.6812   -0.5678 H   0  0  0  0  0  0  0  0  0  0  0  0
    7.0295    3.1487   -1.9027 H   0  0  0  0  0  0  0  0  0  0  0  0
    7.2468    1.8479   -3.8791 H   0  0  0  0  0  0  0  0  0  0  0  0
  1  2  1  0  0  0  0
  1 23  1  0  0  0  0
  1 24  1  0  0  0  0
  1 25  1  0  0  0  0
  2  3  1  0  0  0  0
  2  4  1  0  0  0  0
  2 26  1  0  0  0  0
  3 27  1  0  0  0  0
  3 28  1  0  0  0  0
  3 29  1  0  0  0  0
  4  5  2  0  0  0  0
  4  6  2  0  0  0  0
  4  7  1  0  0  0  0
  7 12  2  0  0  0  0
  7  8  1  0  0  0  0
  8  9  2  0  0  0  0
  8 30  1  0  0  0  0
  9 10  1  0  0  0  0
  9 31  1  0  0  0  0
 10 11  2  0  0  0  0
 10 15  1  0  0  0  0
 11 12  1  0  0  0  0
 11 14  1  0  0  0  0
 12 13  1  0  0  0  0
 15 16  1  1  0  0  0
 15 17  1  0  0  0  0
 15 20  1  0  0  0  0
 17 18  1  0  0  0  0
 17 32  1  0  0  0  0
 17 33  1  0  0  0  0
 18 19  2  0  0  0  0
 18 34  1  0  0  0  0
 20 21  1  0  0  0  0
 20 35  1  0  0  0  0
 21 22  2  0  0  0  0
 21 36  1  0  0  0  0
M  CHG  1  13  -1
M  END
$$$$
ZINC35651784
 OpenBabel01252620473D

 28 29  0  0  0  0  0  0  0  0999 V2000
    1.2108   -0.6823   -0.0896 C   0  0  0  0  0  0  0  0  0  0  0  0
    2.3991    0.0225   -0.0824 C   0  0  0  0  0  0  0  0  0  0  0  0
    2.3818    1.4097   -0.0291 C   0  0  0  0  0  0  0  0  0  0  0  0
    1.1678    2.0856    0.0168 C   0  0  0  0  0  0  0  0  0  0  0  0
   -0.0172    1.3751    0.0093 C   0  0  0  0  0  0  0  0  0  0  0  0
    0.0042   -0.0076   -0.0439 C   0  0  0  0  0  0  0  0  0  0  0  0
   -1.6197   -0.9765   -0.0547 Br  0  0  0  0  0  0  0  0  0  0  0  0
    1.1408    3.8201    0.0840 Cl  0  0  0  0  0  0  0  0  0  0  0  0
    3.5827    2.1254   -0.0212 N   0  0  0  0  0  2  0  0  0  0  0  0
    5.0258    1.3202    0.0857 S   0  0  0  0  0  0  0  0  0  0  0  0
    5.0165    0.6335    1.3297 O   0  0  0  0  0  0  0  0  0  0  0  0
    5.2092    0.6492   -1.1535 O   0  0  0  0  0  0  0  0  0  0  0  0
    6.2951    2.5376    0.1918 C   0  0  0  0  0  0  0  0  0  0  0  0
    6.9711    3.1178   -0.8865 C   0  0  0  0  0  0  0  0  0  0  0  0
    7.8385    3.9746   -0.4118 N   0  0  0  0  0  0  0  0  0  0  0  0
    7.7417    3.9667    0.9857 N   0  0  0  0  0  0  0  0  0  0  0  0
    6.7839    3.0808    1.3307 C   0  0  0  0  0  0  0  0  0  0  0  0
    8.5358    4.7808    1.9093 C   0  0  0  0  0  0  0  0  0  0  0  0
   10.0020    4.5544    1.6449 C   0  0  0  0  0  0  0  0  0  0  0  0
   10.3513    3.7845    0.7664 O   0  0  0  0  0  0  0  0  0  0  0  0
   10.8390    5.1412    2.3095 O   0  0  0  0  0  1  0  0  0  0  0  0
    1.2240   -1.7612   -0.1356 H   0  0  0  0  0  0  0  0  0  0  0  0
    3.3407   -0.5052   -0.1178 H   0  0  0  0  0  0  0  0  0  0  0  0
   -0.9608    1.8993    0.0453 H   0  0  0  0  0  0  0  0  0  0  0  0
    6.8057    2.8967   -1.9306 H   0  0  0  0  0  0  0  0  0  0  0  0
    6.4664    2.8455    2.3358 H   0  0  0  0  0  0  0  0  0  0  0  0
    8.2983    5.8342    1.7613 H   0  0  0  0  0  0  0  0  0  0  0  0
    8.3036    4.4967    2.9357 H   0  0  0  0  0  0  0  0  0  0  0  0
  1  6  2  0  0  0  0
  1  2  1  0  0  0  0
  1 22  1  0  0  0  0
  2  3  2  0  0  0  0
  2 23  1  0  0  0  0
  3  4  1  0  0  0  0
  3  9  1  0  0  0  0
  4  5  2  0  0  0  0
  4  8  1  0  0  0  0
  5  6  1  0  0  0  0
  5 24  1  0  0  0  0
  6  7  1  0  0  0  0
  9 10  1  0  0  0  0
 10 11  2  0  0  0  0
 10 12  2  0  0  0  0
 10 13  1  0  0  0  0
 13 17  2  0  0  0  0
 13 14  1  0  0  0  0
 14 15  2  0  0  0  0
 14 25  1  0  0  0  0
 15 16  1  0  0  0  0
 16 17  1  0  0  0  0
 16 18  1  0  0  0  0
 17 26  1  0  0  0  0
 18 19  1  0  0  0  0
 18 27  1  0  0  0  0
 18 28  1  0  0  0  0
 19 20  2  0  0  0  0
 19 21  1  0  0  0  0
M  END
$$$$
ZINC52789281
 OpenBabel01252620473D

 30 30  0  0  0  0  0  0  0  0999 V2000
   -0.0184    1.5028    0.0103 C   0  0  0  0  0  0  0  0  0  0  0  0
    0.0021   -0.0041    0.0020 C   0  0  0  0  0  0  0  0  0  0  0  0
    0.0060   -0.6998   -1.1967 C   0  0  0  0  0  0  0  0  0  0  0  0
    0.0255   -2.0850   -1.1547 C   0  0  0  0  0  0  0  0  0  0  0  0
    0.0396   -2.6933    0.0204 N   0  0  0  0  0  0  0  0  0  0  0  0
    0.0353   -1.9986    1.1404 C   0  0  0  0  0  0  0  0  0  0  0  0
    0.0221   -0.6807    1.1391 N   0  0  0  0  0  0  0  0  0  0  0  0
    0.0514   -2.7306    2.4576 C   0  0  0  0  0  0  0  0  0  0  0  0
    1.7679   -3.0011    2.9782 S   0  0  0  0  0  0  0  0  0  0  0  0
    2.3869   -3.8785    2.0475 O   0  0  0  0  0  0  0  0  0  0  0  0
    2.3633   -1.7372    3.2378 O   0  0  0  0  0  0  0  0  0  0  0  0
    1.5751   -3.8791    4.5538 C   0  0  0  0  0  0  0  0  0  0  0  0
    0.0301   -2.8877   -2.4302 C   0  0  0  0  0  0  0  0  0  0  0  0
   -0.0110    0.0322   -2.5138 C   0  0  0  0  0  0  0  0  0  0  0  0
    1.4040    0.2964   -2.9600 C   0  0  0  0  0  0  0  0  0  0  0  0
    2.3395   -0.0752   -2.2721 O   0  0  0  0  0  0  0  0  0  0  0  0
    1.6132    0.8818   -4.0088 O   0  0  0  0  0  1  0  0  0  0  0  0
    1.0042    1.8801    0.0026 H   0  0  0  0  0  0  0  0  0  0  0  0
   -0.5455    1.8639   -0.8728 H   0  0  0  0  0  0  0  0  0  0  0  0
   -0.5286    1.8543    0.9071 H   0  0  0  0  0  0  0  0  0  0  0  0
   -0.4671   -2.1363    3.2099 H   0  0  0  0  0  0  0  0  0  0  0  0
   -0.4500   -3.6920    2.3451 H   0  0  0  0  0  0  0  0  0  0  0  0
    1.0342   -4.8105    4.3869 H   0  0  0  0  0  0  0  0  0  0  0  0
    2.5583   -4.0993    4.9697 H   0  0  0  0  0  0  0  0  0  0  0  0
    1.0170   -3.2549    5.2517 H   0  0  0  0  0  0  0  0  0  0  0  0
    1.0587   -3.0669   -2.7431 H   0  0  0  0  0  0  0  0  0  0  0  0
   -0.4697   -3.8415   -2.2611 H   0  0  0  0  0  0  0  0  0  0  0  0
   -0.4956   -2.3352   -3.2091 H   0  0  0  0  0  0  0  0  0  0  0  0
   -0.5200   -0.5765   -3.2612 H   0  0  0  0  0  0  0  0  0  0  0  0
   -0.5378    0.9791   -2.3964 H   0  0  0  0  0  0  0  0  0  0  0  0
  1  2  1  0  0  0  0
  1 18  1  0  0  0  0
  1 19  1  0  0  0  0
  1 20  1  0  0  0  0
  2  7  2  0  0  0  0
  2  3  1  0  0  0  0
  3  4  2  0  0  0  0
  3 14  1  0  0  0  0
  4  5  1  0  0  0  0
  4 13  1  0  0  0  0
  5  6  2  0  0  0  0
  6  7  1  0  0  0  0
  6  8  1  0  0  0  0
  8  9  1  0  0  0  0
  8 21  1  0  0  0  0
  8 22  1  0  0  0  0
  9 10  2  0  0  0  0
  9 11  2  0  0  0  0
  9 12  1  0  0  0  0
 12 23  1  0  0  0  0
 12 24  1  0  0  0  0
 12 25  1  0  0  0  0
 13 26  1  0  0  0  0
 13 27  1  0  0  0  0
 13 28  1  0  0  0  0
 14 15  1  0  0  0  0
 14 29  1  0  0  0  0
 14 30  1  0  0  0  0
 15 16  2  0  0  0  0
 15 17  1  0  0  0  0
M  END
$$$$
ZINC40053355
 OpenBabel01252620473D

 50 53  0  0  1  0  0  0  0  0999 V2000
   -5.7769   -3.2910   -3.1045 C   0  0  0  0  0  0  0  0  0  0  0  0
   -4.5719   -3.7360   -2.4784 O   0  0  0  0  0  0  0  0  0  0  0  0
   -3.4713   -3.8497   -3.2685 C   0  0  0  0  0  0  0  0  0  0  0  0
   -3.5469   -3.5351   -4.6131 C   0  0  0  0  0  0  0  0  0  0  0  0
   -2.4311   -3.6473   -5.4307 C   0  0  0  0  0  0  0  0  0  0  0  0
   -1.2371   -4.0712   -4.9197 C   0  0  0  0  0  0  0  0  0  0  0  0
   -1.1371   -4.3943   -3.5628 C   0  0  0  0  0  0  0  0  0  0  0  0
   -2.2613   -4.2782   -2.7250 C   0  0  0  0  0  0  0  0  0  0  0  0
   -1.8847   -4.6422   -1.4828 O   0  0  0  0  0  0  0  0  0  0  0  0
   -0.5800   -4.9838   -1.4575 C   0  0  0  0  0  0  0  0  0  0  0  0
   -0.0509   -4.8657   -2.7061 C   0  0  0  0  0  0  0  0  0  0  0  0
    0.1549   -5.4293   -0.2660 C   0  0  0  0  0  0  0  0  0  0  0  0
    1.3033   -5.8217   -0.3701 O   0  0  0  0  0  0  0  0  0  0  0  0
   -0.4943   -5.4014    1.0492 C   0  0  0  0  0  0  0  0  0  0  0  0
   -0.8094   -6.4706    1.8166 C   0  0  0  0  0  0  0  0  0  0  0  0
   -1.4494   -6.0024    3.0626 C   0  0  0  0  0  0  0  0  0  0  0  0
   -1.8467   -6.7238    3.9560 O   0  0  0  0  0  0  0  0  0  0  0  0
   -1.5276   -4.6593    3.0625 N   0  0  0  0  0  0  0  0  0  0  0  0
   -0.9343   -4.1732    1.8112 C   0  0  1  0  0  0  0  0  0  0  0  0
   -1.6775   -3.6213    1.2358 H   0  0  0  0  0  0  0  0  0  0  0  0
    0.2530   -3.2927    2.1051 C   0  0  0  0  0  0  0  0  0  0  0  0
    1.2068   -3.7002    3.0204 C   0  0  0  0  0  0  0  0  0  0  0  0
    2.2966   -2.8914    3.2899 C   0  0  0  0  0  0  0  0  0  0  0  0
    2.4321   -1.6764    2.6451 C   0  0  0  0  0  0  0  0  0  0  0  0
    1.4794   -1.2687    1.7304 C   0  0  0  0  0  0  0  0  0  0  0  0
    0.3923   -2.0794    1.4555 C   0  0  0  0  0  0  0  0  0  0  0  0
   -0.8001   -1.5708    0.3010 Cl  0  0  0  0  0  0  0  0  0  0  0  0
    1.0362   -5.2256    3.8313 Cl  0  0  0  0  0  0  0  0  0  0  0  0
   -2.0993   -3.8288    4.1254 C   0  0  0  0  0  0  0  0  0  0  0  0
   -1.0057   -3.4638    5.1313 C   0  0  0  0  0  0  0  0  0  0  0  0
   -1.6027   -2.5965    6.2414 C   0  0  0  0  0  0  0  0  0  0  0  0
   -0.5814   -2.2556    7.1809 O   0  0  0  0  0  0  0  0  0  0  0  0
   -0.5757   -7.7640    1.4932 O   0  5  0  0  0  0  0  0  0  0  0  0
   -5.6199   -2.3007   -3.5322 H   0  0  0  0  0  0  0  0  0  0  0  0
   -6.0546   -3.9883   -3.8950 H   0  0  0  0  0  0  0  0  0  0  0  0
   -6.5754   -3.2444   -2.3640 H   0  0  0  0  0  0  0  0  0  0  0  0
   -4.4842   -3.1990   -5.0314 H   0  0  0  0  0  0  0  0  0  0  0  0
   -2.5073   -3.3980   -6.4787 H   0  0  0  0  0  0  0  0  0  0  0  0
   -0.3730   -4.1568   -5.5619 H   0  0  0  0  0  0  0  0  0  0  0  0
    0.9682   -5.0674   -3.0013 H   0  0  0  0  0  0  0  0  0  0  0  0
    3.0413   -3.2094    4.0045 H   0  0  0  0  0  0  0  0  0  0  0  0
    3.2825   -1.0451    2.8562 H   0  0  0  0  0  0  0  0  0  0  0  0
    1.5856   -0.3191    1.2271 H   0  0  0  0  0  0  0  0  0  0  0  0
   -2.5130   -2.9182    3.6922 H   0  0  0  0  0  0  0  0  0  0  0  0
   -2.8899   -4.3815    4.6328 H   0  0  0  0  0  0  0  0  0  0  0  0
   -0.5920   -4.3744    5.5645 H   0  0  0  0  0  0  0  0  0  0  0  0
   -0.2151   -2.9111    4.6239 H   0  0  0  0  0  0  0  0  0  0  0  0
   -2.0165   -1.6859    5.8081 H   0  0  0  0  0  0  0  0  0  0  0  0
   -2.3934   -3.1492    6.7488 H   0  0  0  0  0  0  0  0  0  0  0  0
   -0.8891   -1.7051    7.9139 H   0  0  0  0  0  0  0  0  0  0  0  0
  1  2  1  0  0  0  0
  1 34  1  0  0  0  0
  1 35  1  0  0  0  0
  1 36  1  0  0  0  0
  2  3  1  0  0  0  0
  3  8  2  0  0  0  0
  3  4  1  0  0  0  0
  4  5  2  0  0  0  0
  4 37  1  0  0  0  0
  5  6  1  0  0  0  0
  5 38  1  0  0  0  0
  6  7  2  0  0  0  0
  6 39  1  0  0  0  0
  7 11  1  0  0  0  0
  7  8  1  0  0  0  0
  8  9  1  0  0  0  0
  9 10  1  0  0  0  0
 10 11  2  0  0  0  0
 10 12  1  0  0  0  0
 11 40  1  0  0  0  0
 12 13  2  0  0  0  0
 12 14  1  0  0  0  0
 14 19  1  0  0  0  0
 14 15  2  0  0  0  0
 15 16  1  0  0  0  0
 15 33  1  0  0  0  0
 16 17  2  0  0  0  0
 16 18  1  0  0  0  0
 18 19  1  0  0  0  0
 18 29  1  0  0  0  0
 19 20  1  6  0  0  0
 19 21  1  0  0  0  0
 21 26  2  0  0  0  0
 21 22  1  0  0  0  0
 22 23  2  0  0  0  0
 22 28  1  0  0  0  0
 23 24  1  0  0  0  0
 23 41  1  0  0  0  0
 24 25  2  0  0  0  0
 24 42  1  0  0  0  0
 25 26  1  0  0  0  0
 25 43  1  0  0  0  0
 26 27  1  0  0  0  0
 29 30  1  0  0  0  0
 29 44  1  0  0  0  0
 29 45  1  0  0  0  0
 30 31  1  0  0  0  0
 30 46  1  0  0  0  0
 30 47  1  0  0  0  0
 31 32  1  0  0  0  0
 31 48  1  0  0  0  0
 31 49  1  0  0  0  0
 32 50  1  0  0  0  0
M  CHG  1  33  -1
M  END
$$$$
ZINC61149369
 OpenBabel01252620473D

 39 40  0  0  0  0  0  0  0  0999 V2000
    0.1217    1.6106    0.0326 C   0  0  0  0  0  0  0  0  0  0  0  0
    0.1803    0.0818    0.0527 C   0  0  0  0  0  0  0  0  0  0  0  0
   -1.1800   -0.4582    0.1164 N   0  0  0  0  0  0  0  0  0  0  0  0
   -1.9027   -0.5992   -1.0124 C   0  0  0  0  0  0  0  0  0  0  0  0
   -3.0569   -0.9767   -0.9522 O   0  0  0  0  0  0  0  0  0  0  0  0
   -1.2930   -0.2952   -2.3217 C   0  0  0  0  0  0  0  0  0  0  0  0
   -1.8668   -0.5112   -3.5422 C   0  0  0  0  0  0  0  0  0  0  0  0
   -0.9752   -0.0936   -4.4832 N   0  0  0  0  0  0  0  0  0  0  0  0
   -1.0210   -0.0742   -5.8491 C   0  0  0  0  0  0  0  0  0  0  0  0
    0.0182    0.4014   -6.5649 C   0  0  0  0  0  0  0  0  0  0  0  0
    1.1666    0.8849   -5.9141 C   0  0  0  0  0  0  0  0  0  0  0  0
    1.2276    0.8724   -4.5566 C   0  0  0  0  0  0  0  0  0  0  0  0
    0.1324    0.3721   -3.8194 C   0  0  0  0  0  0  0  0  0  0  0  0
   -0.0778    0.2481   -2.5197 N   0  0  0  0  0  0  0  0  0  0  0  0
   -2.2444   -0.5898   -6.5621 C   0  0  0  0  0  0  0  0  0  0  0  0
   -1.7548   -0.8451    1.4072 C   0  0  0  0  0  0  0  0  0  0  0  0
   -0.7596   -0.5261    2.5248 C   0  0  0  0  0  0  0  0  0  0  0  0
   -3.0514   -0.0676    1.6417 C   0  0  0  0  0  0  0  0  0  0  0  0
   -2.0490   -2.3231    1.4034 C   0  0  0  0  0  0  0  0  0  0  0  0
   -1.7115   -3.0094    0.4538 O   0  0  0  0  0  0  0  0  0  0  0  0
   -2.6245   -2.8326    2.3498 O   0  0  0  0  0  1  0  0  0  0  0  0
    1.1338    2.0124   -0.0149 H   0  0  0  0  0  0  0  0  0  0  0  0
   -0.4417    1.9411   -0.8400 H   0  0  0  0  0  0  0  0  0  0  0  0
   -0.3687    1.9673    0.9383 H   0  0  0  0  0  0  0  0  0  0  0  0
    0.6708   -0.2749   -0.8530 H   0  0  0  0  0  0  0  0  0  0  0  0
    0.7438   -0.2487    0.9252 H   0  0  0  0  0  0  0  0  0  0  0  0
   -2.8434   -0.9338   -3.7264 H   0  0  0  0  0  0  0  0  0  0  0  0
   -0.0319    0.4106   -7.6437 H   0  0  0  0  0  0  0  0  0  0  0  0
    1.9972    1.2644   -6.4907 H   0  0  0  0  0  0  0  0  0  0  0  0
    2.1052    1.2415   -4.0467 H   0  0  0  0  0  0  0  0  0  0  0  0
   -2.9517    0.2268   -6.7068 H   0  0  0  0  0  0  0  0  0  0  0  0
   -1.9557   -0.9964   -7.5314 H   0  0  0  0  0  0  0  0  0  0  0  0
   -2.7107   -1.3726   -5.9639 H   0  0  0  0  0  0  0  0  0  0  0  0
   -0.5468    0.5429    2.5275 H   0  0  0  0  0  0  0  0  0  0  0  0
   -1.1873   -0.8139    3.4852 H   0  0  0  0  0  0  0  0  0  0  0  0
    0.1641   -1.0800    2.3577 H   0  0  0  0  0  0  0  0  0  0  0  0
   -3.7604   -0.2948    0.8455 H   0  0  0  0  0  0  0  0  0  0  0  0
   -3.4791   -0.3554    2.6021 H   0  0  0  0  0  0  0  0  0  0  0  0
   -2.8386    1.0014    1.6445 H   0  0  0  0  0  0  0  0  0  0  0  0
  1  2  1  0  0  0  0
  1 22  1  0  0  0  0
  1 23  1  0  0  0  0
  1 24  1  0  0  0  0
  2  3  1  0  0  0  0
  2 25  1  0  0  0  0
  2 26  1  0  0  0  0
  3  4  1  0  0  0  0
  3 16  1  0  0  0  0
  4  5  2  0  0  0  0
  4  6  1  0  0  0  0
  6 14  1  0  0  0  0
  6  7  2  0  0  0  0
  7  8  1  0  0  0  0
  7 27  1  0  0  0  0
  8 13  1  0  0  0  0
  8  9  1  0  0  0  0
  9 10  2  0  0  0  0
  9 15  1  0  0  0  0
 10 11  1  0  0  0  0
 10 28  1  0  0  0  0
 11 12  2  0  0  0  0
 11 29  1  0  0  0  0
 12 13  1  0  0  0  0
 12 30  1  0  0  0  0
 13 14  2  0  0  0  0
 15 31  1  0  0  0  0
 15 32  1  0  0  0  0
 15 33  1  0  0  0  0
 16 17  1  0  0  0  0
 16 18  1  0  0  0  0
 16 19  1  0  0  0  0
 17 34  1  0  0  0  0
 17 35  1  0  0  0  0
 17 36  1  0  0  0  0
 18 37  1  0  0  0  0
 18 38  1  0  0  0  0
 18 39  1  0  0  0  0
 19 20  2  0  0  0  0
 19 21  1  0  0  0  0
M  END
$$$$
ZINC13204433
 OpenBabel01252620473D

 44 46  0  0  1  0  0  0  0  0999 V2000
   -0.9651    3.2873   -3.6268 C   0  0  0  0  0  0  0  0  0  0  0  0
   -0.9970    1.7576   -3.6299 C   0  0  1  0  0  0  0  0  0  0  0  0
   -2.4532    1.3015   -3.5514 C   0  0  0  0  0  0  0  0  0  0  0  0
   -3.0456    1.1416   -4.9795 C   0  0  0  0  0  0  0  0  0  0  0  0
   -1.5882    0.3978   -5.8356 S   0  0  0  0  0  0  0  0  0  0  0  0
   -1.5595    0.8456   -7.1839 O   0  0  0  0  0  0  0  0  0  0  0  0
   -1.5413   -0.9947   -5.5563 O   0  0  0  0  0  0  0  0  0  0  0  0
   -0.2614    1.2509   -4.8859 C   0  0  0  0  0  0  0  0  0  0  0  0
   -0.2884    1.2723   -2.4431 N   0  0  0  0  0  0  0  0  0  0  0  0
   -0.7416    1.5850   -1.2129 C   0  0  0  0  0  0  0  0  0  0  0  0
   -1.7359    2.2682   -1.0884 O   0  0  0  0  0  0  0  0  0  0  0  0
   -0.0127    1.0858    0.0080 C   0  0  0  0  0  0  0  0  0  0  0  0
   -0.8599    1.6695    1.4972 S   0  0  0  0  0  0  0  0  0  0  0  0
    0.1742    0.9607    2.7352 C   0  0  0  0  0  0  0  0  0  0  0  0
    1.2402    0.2212    2.5299 N   0  0  0  0  0  0  0  0  0  0  0  0
    1.7593   -0.1286    3.6521 N   0  0  0  0  0  0  0  0  0  0  0  0
    1.0506    0.3599    4.6461 C   0  0  0  0  0  0  0  0  0  0  0  0
    0.0128    1.0732    4.0883 N   0  0  0  0  0  0  0  0  0  0  0  0
   -1.0430    1.8010    4.7968 C   0  0  0  0  0  0  0  0  0  0  0  0
   -2.2107    0.8803    5.0413 C   0  0  0  0  0  0  0  0  0  0  0  0
   -2.1656   -0.2663    4.6627 O   0  0  0  0  0  0  0  0  0  0  0  0
    1.3163    0.1793    6.0824 C   0  0  0  0  0  0  0  0  0  0  0  0
    2.1432   -0.7235    6.7019 C   0  0  0  0  0  0  0  0  0  0  0  0
    2.2312   -0.7040    8.0758 C   0  0  0  0  0  0  0  0  0  0  0  0
    1.5006    0.2037    8.7735 C   0  0  0  0  0  0  0  0  0  0  0  0
    0.6524    1.0828    7.4718 S   0  0  0  0  0  0  0  0  0  0  0  0
    0.0694    3.6292   -3.6596 H   0  0  0  0  0  0  0  0  0  0  0  0
   -1.4999    3.6636   -4.4988 H   0  0  0  0  0  0  0  0  0  0  0  0
   -1.4419    3.6588   -2.7198 H   0  0  0  0  0  0  0  0  0  0  0  0
   -2.5041    0.3453   -3.0307 H   0  0  0  0  0  0  0  0  0  0  0  0
   -3.0338    2.0418   -3.0010 H   0  0  0  0  0  0  0  0  0  0  0  0
   -3.3095    2.1073   -5.4106 H   0  0  0  0  0  0  0  0  0  0  0  0
   -3.8980    0.4622   -4.9831 H   0  0  0  0  0  0  0  0  0  0  0  0
    0.1445    2.0857   -5.4571 H   0  0  0  0  0  0  0  0  0  0  0  0
    0.5277    0.5502   -4.6130 H   0  0  0  0  0  0  0  0  0  0  0  0
    0.5068    0.7259   -2.5426 H   0  0  0  0  0  0  0  0  0  0  0  0
    0.0021   -0.0041    0.0020 H   0  0  0  0  0  0  0  0  0  0  0  0
    1.0099    1.4631    0.0003 H   0  0  0  0  0  0  0  0  0  0  0  0
   -0.6585    2.1615    5.7509 H   0  0  0  0  0  0  0  0  0  0  0  0
   -1.3685    2.6480    4.1928 H   0  0  0  0  0  0  0  0  0  0  0  0
    2.7133   -1.4353    6.1235 H   0  0  0  0  0  0  0  0  0  0  0  0
    2.8732   -1.4022    8.5923 H   0  0  0  0  0  0  0  0  0  0  0  0
    1.4495    0.3572    9.8413 H   0  0  0  0  0  0  0  0  0  0  0  0
   -3.3008    1.3339    5.6798 O   0  0  0  0  0  1  0  0  0  0  0  0
  1 27  1  0  0  0  0
  1 28  1  0  0  0  0
  1 29  1  0  0  0  0
  2  1  1  1  0  0  0
  2  8  1  0  0  0  0
  2  3  1  0  0  0  0
  2  9  1  0  0  0  0
  3  4  1  0  0  0  0
  3 30  1  0  0  0  0
  3 31  1  0  0  0  0
  4  5  1  0  0  0  0
  4 32  1  0  0  0  0
  4 33  1  0  0  0  0
  5  6  2  0  0  0  0
  5  7  2  0  0  0  0
  5  8  1  0  0  0  0
  8 34  1  0  0  0  0
  8 35  1  0  0  0  0
  9 10  1  0  0  0  0
  9 36  1  0  0  0  0
 10 11  2  0  0  0  0
 10 12  1  0  0  0  0
 12 13  1  0  0  0  0
 12 37  1  0  0  0  0
 12 38  1  0  0  0  0
 13 14  1  0  0  0  0
 14 18  1  0  0  0  0
 14 15  2  0  0  0  0
 15 16  1  0  0  0  0
 16 17  2  0  0  0  0
 17 18  1  0  0  0  0
 17 22  1  0  0  0  0
 18 19  1  0  0  0  0
 19 20  1  0  0  0  0
 19 39  1  0  0  0  0
 19 40  1  0  0  0  0
 20 21  2  0  0  0  0
 20 44  1  0  0  0  0
 22 26  1  0  0  0  0
 22 23  2  0  0  0  0
 23 24  1  0  0  0  0
 23 41  1  0  0  0  0
 24 25  2  0  0  0  0
 24 42  1  0  0  0  0
 25 26  1  0  0  0  0
 25 43  1  0  0  0  0
M  END
$$$$
ZINC59266497
 OpenBabel01252620473D

 56 57  0  0  1  0  0  0  0  0999 V2000
   -0.8480    1.8500    0.2448 C   0  0  0  0  0  0  0  0  0  0  0  0
   -0.8216    0.3297    0.4151 C   0  0  1  0  0  0  0  0  0  0  0  0
   -0.1704   -0.1093   -0.3407 H   0  0  0  0  0  0  0  0  0  0  0  0
   -0.3011   -0.0131    1.7872 C   0  0  0  0  0  0  0  0  0  0  0  0
   -1.1836   -0.2277    2.8278 C   0  0  0  0  0  0  0  0  0  0  0  0
   -0.7069   -0.5417    4.0871 C   0  0  0  0  0  0  0  0  0  0  0  0
    0.6545   -0.6425    4.3093 C   0  0  0  0  0  0  0  0  0  0  0  0
    1.5423   -0.4296    3.2734 C   0  0  0  0  0  0  0  0  0  0  0  0
    1.0665   -0.1191    2.0055 C   0  0  0  0  0  0  0  0  0  0  0  0
    1.9615    0.0917    0.9542 N   0  0  0  0  0  2  0  0  0  0  0  0
    3.5917   -0.0352    1.2166 S   0  0  0  0  0  0  0  0  0  0  0  0
    3.8933    1.0064    2.1349 O   0  0  0  0  0  0  0  0  0  0  0  0
    3.7970   -1.3957    1.5714 O   0  0  0  0  0  0  0  0  0  0  0  0
    4.3514    0.3122   -0.3936 C   0  0  0  0  0  0  0  0  0  0  0  0
   -2.1776   -0.2026    0.2602 N   0  0  0  0  0  0  0  0  0  0  0  0
   -2.6227   -0.5689   -0.9580 C   0  0  0  0  0  0  0  0  0  0  0  0
   -1.8990   -0.4575   -1.9283 O   0  0  0  0  0  0  0  0  0  0  0  0
   -3.9913   -1.1062   -1.1144 C   0  0  0  0  0  0  0  0  0  0  0  0
   -4.8266   -1.2297   -0.0024 C   0  0  0  0  0  0  0  0  0  0  0  0
   -6.1034   -1.7309   -0.1512 C   0  0  0  0  0  0  0  0  0  0  0  0
   -6.5604   -2.1122   -1.3991 C   0  0  0  0  0  0  0  0  0  0  0  0
   -5.7370   -1.9933   -2.5118 C   0  0  0  0  0  0  0  0  0  0  0  0
   -4.4543   -1.4859   -2.3739 C   0  0  0  0  0  0  0  0  0  0  0  0
   -6.2043   -2.3812   -3.7730 N   0  0  0  0  0  0  0  0  0  0  0  0
   -5.3602   -2.9427   -4.6611 C   0  0  0  0  0  0  0  0  0  0  0  0
   -4.1782   -3.0414   -4.3972 O   0  0  0  0  0  0  0  0  0  0  0  0
   -5.8267   -3.3943   -5.8407 O   0  0  0  0  0  0  0  0  0  0  0  0
   -4.8760   -3.9779   -6.7338 C   0  0  0  0  0  0  0  0  0  0  0  0
   -4.2195   -5.1855   -6.0618 C   0  0  0  0  0  0  0  0  0  0  0  0
   -5.5865   -4.4291   -8.0114 C   0  0  0  0  0  0  0  0  0  0  0  0
   -3.8040   -2.9440   -7.0842 C   0  0  0  0  0  0  0  0  0  0  0  0
    0.1610    2.2461    0.3600 H   0  0  0  0  0  0  0  0  0  0  0  0
   -1.2245    2.0979   -0.7476 H   0  0  0  0  0  0  0  0  0  0  0  0
   -1.4992    2.2890    1.0006 H   0  0  0  0  0  0  0  0  0  0  0  0
   -2.2473   -0.1498    2.6577 H   0  0  0  0  0  0  0  0  0  0  0  0
   -1.3991   -0.7084    4.8992 H   0  0  0  0  0  0  0  0  0  0  0  0
    1.0236   -0.8876    5.2942 H   0  0  0  0  0  0  0  0  0  0  0  0
    2.6053   -0.5081    3.4476 H   0  0  0  0  0  0  0  0  0  0  0  0
    4.0721    1.3144   -0.7185 H   0  0  0  0  0  0  0  0  0  0  0  0
    5.4359    0.2480   -0.3051 H   0  0  0  0  0  0  0  0  0  0  0  0
    4.0028   -0.4171   -1.1248 H   0  0  0  0  0  0  0  0  0  0  0  0
   -2.7552   -0.2915    1.0345 H   0  0  0  0  0  0  0  0  0  0  0  0
   -4.4731   -0.9332    0.9741 H   0  0  0  0  0  0  0  0  0  0  0  0
   -6.7480   -1.8261    0.7102 H   0  0  0  0  0  0  0  0  0  0  0  0
   -7.5607   -2.5042   -1.5092 H   0  0  0  0  0  0  0  0  0  0  0  0
   -3.8141   -1.3888   -3.2383 H   0  0  0  0  0  0  0  0  0  0  0  0
   -7.1357   -2.2458   -4.0079 H   0  0  0  0  0  0  0  0  0  0  0  0
   -4.9831   -5.9221   -5.8121 H   0  0  0  0  0  0  0  0  0  0  0  0
   -3.4943   -5.6307   -6.7430 H   0  0  0  0  0  0  0  0  0  0  0  0
   -3.7132   -4.8641   -5.1515 H   0  0  0  0  0  0  0  0  0  0  0  0
   -6.0542   -3.5687   -8.4902 H   0  0  0  0  0  0  0  0  0  0  0  0
   -4.8613   -4.8742   -8.6926 H   0  0  0  0  0  0  0  0  0  0  0  0
   -6.3502   -5.1656   -7.7617 H   0  0  0  0  0  0  0  0  0  0  0  0
   -3.2978   -2.6226   -6.1740 H   0  0  0  0  0  0  0  0  0  0  0  0
   -3.0788   -3.3892   -7.7654 H   0  0  0  0  0  0  0  0  0  0  0  0
   -4.2717   -2.0837   -7.5630 H   0  0  0  0  0  0  0  0  0  0  0  0
  1  2  1  0  0  0  0
  1 32  1  0  0  0  0
  1 33  1  0  0  0  0
  1 34  1  0  0  0  0
  2  3  1  6  0  0  0
  2  4  1  0  0  0  0
  2 15  1  0  0  0  0
  4  9  2  0  0  0  0
  4  5  1  0  0  0  0
  5  6  2  0  0  0  0
  5 35  1  0  0  0  0
  6  7  1  0  0  0  0
  6 36  1  0  0  0  0
  7  8  2  0  0  0  0
  7 37  1  0  0  0  0
  8  9  1  0  0  0  0
  8 38  1  0  0  0  0
  9 10  1  0  0  0  0
 10 11  1  0  0  0  0
 11 12  2  0  0  0  0
 11 13  2  0  0  0  0
 11 14  1  0  0  0  0
 14 39  1  0  0  0  0
 14 40  1  0  0  0  0
 14 41  1  0  0  0  0
 15 16  1  0  0  0  0
 15 42  1  0  0  0  0
 16 17  2  0  0  0  0
 16 18  1  0  0  0  0
 18 23  2  0  0  0  0
 18 19  1  0  0  0  0
 19 20  2  0  0  0  0
 19 43  1  0  0  0  0
 20 21  1  0  0  0  0
 20 44  1  0  0  0  0
 21 22  2  0  0  0  0
 21 45  1  0  0  0  0
 22 23  1  0  0  0  0
 22 24  1  0  0  0  0
 23 46  1  0  0  0  0
 24 25  1  0  0  0  0
 24 47  1  0  0  0  0
 25 26  2  0  0  0  0
 25 27  1  0  0  0  0
 27 28  1  0  0  0  0
 28 29  1  0  0  0  0
 28 30  1  0  0  0  0
 28 31  1  0  0  0  0
 29 48  1  0  0  0  0
 29 49  1  0  0  0  0
 29 50  1  0  0  0  0
 30 51  1  0  0  0  0
 30 52  1  0  0  0  0
 30 53  1  0  0  0  0
 31 54  1  0  0  0  0
 31 55  1  0  0  0  0
 31 56  1  0  0  0  0
M  END
$$$$
ZINC65530197
 OpenBabel01252620473D

 48 51  0  0  1  0  0  0  0  0999 V2000
    0.4242    1.4914   -0.0396 C   0  0  0  0  0  0  0  0  0  0  0  0
    0.3270   -0.0124   -0.0348 C   0  0  0  0  0  0  0  0  0  0  0  0
   -0.3590   -0.6626   -1.0442 C   0  0  0  0  0  0  0  0  0  0  0  0
   -0.4503   -2.0407   -1.0425 C   0  0  0  0  0  0  0  0  0  0  0  0
    0.1482   -2.7735   -0.0258 C   0  0  0  0  0  0  0  0  0  0  0  0
    0.8368   -2.1174    0.9862 C   0  0  0  0  0  0  0  0  0  0  0  0
    0.9288   -0.7394    0.9759 C   0  0  0  0  0  0  0  0  0  0  0  0
    0.0572   -4.1692   -0.0209 N   0  0  0  0  0  2  0  0  0  0  0  0
    0.1751   -4.8570    1.1529 C   0  0  0  0  0  0  0  0  0  0  0  0
    0.1834   -4.3534    2.3732 N   0  0  0  0  0  0  0  0  0  0  0  0
    0.2995   -5.0686    3.4633 C   0  0  0  0  0  0  0  0  0  0  0  0
    0.3052   -4.5936    4.5822 O   0  0  0  0  0  0  0  0  0  0  0  0
    0.4258   -6.5612    3.1794 C   0  0  1  0  0  0  0  0  0  0  0  0
   -0.4075   -7.1197    3.6057 H   0  0  0  0  0  0  0  0  0  0  0  0
    0.3325   -6.5220    1.3421 S   0  0  0  0  0  0  0  0  0  0  0  0
    1.7683   -7.1112    3.6652 C   0  0  0  0  0  0  0  0  0  0  0  0
    1.7971   -8.6059    3.4755 C   0  0  0  0  0  0  0  0  0  0  0  0
    3.4995   -8.9346    2.3331 H   0  0  0  0  0  0  0  0  0  0  0  0
    0.9189   -9.4566    3.9412 N   0  0  0  0  0  0  0  0  0  0  0  0
    1.2555  -10.6951    3.5833 C   0  0  0  0  0  0  0  0  0  0  0  0
    2.3575  -10.6495    2.8818 N   0  0  0  0  0  0  0  0  0  0  0  0
    2.7264   -9.2973    2.7932 N   0  0  0  0  0  0  0  0  0  0  0  0
    0.4902  -11.9458    3.9317 C   0  0  0  0  0  0  0  0  0  0  0  0
   -0.5446  -12.2308    2.8413 C   0  0  0  0  0  0  0  0  0  0  0  0
   -1.3098  -13.4814    3.1897 C   0  0  0  0  0  0  0  0  0  0  0  0
   -0.8521  -14.7136    2.7616 C   0  0  0  0  0  0  0  0  0  0  0  0
   -1.5540  -15.8608    3.0811 C   0  0  0  0  0  0  0  0  0  0  0  0
   -2.7135  -15.7759    3.8291 C   0  0  0  0  0  0  0  0  0  0  0  0
   -3.1707  -14.5438    4.2579 C   0  0  0  0  0  0  0  0  0  0  0  0
   -2.4664  -13.3971    3.9420 C   0  0  0  0  0  0  0  0  0  0  0  0
    1.3105    1.7965   -0.5959 H   0  0  0  0  0  0  0  0  0  0  0  0
   -0.4637    1.9114   -0.5121 H   0  0  0  0  0  0  0  0  0  0  0  0
    0.4962    1.8541    0.9858 H   0  0  0  0  0  0  0  0  0  0  0  0
   -0.8242   -0.0922   -1.8345 H   0  0  0  0  0  0  0  0  0  0  0  0
   -0.9868   -2.5479   -1.8308 H   0  0  0  0  0  0  0  0  0  0  0  0
    1.3030   -2.6844    1.7785 H   0  0  0  0  0  0  0  0  0  0  0  0
    1.4679   -0.2289    1.7601 H   0  0  0  0  0  0  0  0  0  0  0  0
    2.5761   -6.6565    3.0918 H   0  0  0  0  0  0  0  0  0  0  0  0
    1.8961   -6.8766    4.7220 H   0  0  0  0  0  0  0  0  0  0  0  0
    1.1810  -12.7857    4.0055 H   0  0  0  0  0  0  0  0  0  0  0  0
   -0.0168  -11.8074    4.8866 H   0  0  0  0  0  0  0  0  0  0  0  0
   -1.2354  -11.3909    2.7675 H   0  0  0  0  0  0  0  0  0  0  0  0
   -0.0375  -12.3692    1.8864 H   0  0  0  0  0  0  0  0  0  0  0  0
    0.0537  -14.7799    2.1773 H   0  0  0  0  0  0  0  0  0  0  0  0
   -1.1968  -16.8234    2.7461 H   0  0  0  0  0  0  0  0  0  0  0  0
   -3.2623  -16.6721    4.0781 H   0  0  0  0  0  0  0  0  0  0  0  0
   -4.0767  -14.4775    4.8420 H   0  0  0  0  0  0  0  0  0  0  0  0
   -2.8216  -12.4348    4.2802 H   0  0  0  0  0  0  0  0  0  0  0  0
  1  2  1  0  0  0  0
  1 31  1  0  0  0  0
  1 32  1  0  0  0  0
  1 33  1  0  0  0  0
  2  7  2  0  0  0  0
  2  3  1  0  0  0  0
  3  4  2  0  0  0  0
  3 34  1  0  0  0  0
  4  5  1  0  0  0  0
  4 35  1  0  0  0  0
  5  6  2  0  0  0  0
  5  8  1  0  0  0  0
  6  7  1  0  0  0  0
  6 36  1  0  0  0  0
  7 37  1  0  0  0  0
  8  9  1  0  0  0  0
  9 15  1  0  0  0  0
  9 10  2  0  0  0  0
 10 11  1  0  0  0  0
 11 12  2  0  0  0  0
 11 13  1  0  0  0  0
 13 14  1  1  0  0  0
 13 15  1  0  0  0  0
 13 16  1  0  0  0  0
 16 38  1  0  0  0  0
 16 39  1  0  0  0  0
 16 17  1  0  0  0  0
 17 19  2  0  0  0  0
 17 22  1  0  0  0  0
 18 22  1  0  0  0  0
 19 20  1  0  0  0  0
 20 23  1  0  0  0  0
 20 21  2  0  0  0  0
 21 22  1  0  0  0  0
 23 24  1  0  0  0  0
 23 40  1  0  0  0  0
 23 41  1  0  0  0  0
 24 25  1  0  0  0  0
 24 42  1  0  0  0  0
 24 43  1  0  0  0  0
 25 30  2  0  0  0  0
 25 26  1  0  0  0  0
 26 27  2  0  0  0  0
 26 44  1  0  0  0  0
 27 28  1  0  0  0  0
 27 45  1  0  0  0  0
 28 29  2  0  0  0  0
 28 46  1  0  0  0  0
 29 30  1  0  0  0  0
 29 47  1  0  0  0  0
 30 48  1  0  0  0  0
M  END
$$$$
ZINC01816838
 OpenBabel01252620473D

 18 18  0  0  0  0  0  0  0  0999 V2000
   -1.2286    2.4070    0.0210 C   0  0  0  0  0  0  0  0  0  0  0  0
   -1.2473    3.7900    0.0335 C   0  0  0  0  0  0  0  0  0  0  0  0
   -0.0577    4.4985    0.0264 C   0  0  0  0  0  0  0  0  0  0  0  0
    1.1494    3.8233    0.0112 C   0  0  0  0  0  0  0  0  0  0  0  0
    1.1681    2.4403    0.0040 C   0  0  0  0  0  0  0  0  0  0  0  0
   -0.0215    1.7317    0.0116 C   0  0  0  0  0  0  0  0  0  0  0  0
    0.0021   -0.0041    0.0020 Cl  0  0  0  0  0  0  0  0  0  0  0  0
    2.6831    1.5929   -0.0151 Cl  0  0  0  0  0  0  0  0  0  0  0  0
    2.6632    4.7250    0.0016 S   0  0  0  0  0  0  0  0  0  0  0  0
    2.3800    6.0000    0.5616 O   0  0  0  0  0  0  0  0  0  0  0  0
    3.6545    3.8601    0.5388 O   0  0  0  0  0  0  0  0  0  0  0  0
   -0.0812    6.2344    0.0360 Cl  0  0  0  0  0  0  0  0  0  0  0  0
   -2.7623    4.6374    0.0521 Cl  0  0  0  0  0  0  0  0  0  0  0  0
   -2.7424    1.5053    0.0233 S   0  0  0  0  0  0  0  0  0  0  0  0
   -3.7312    2.3704   -0.5182 O   0  0  0  0  0  0  0  0  0  0  0  0
   -2.4567    0.2306   -0.5358 O   0  0  0  0  0  0  0  0  0  0  0  0
    3.0362    4.9627   -1.4547 O   0  0  0  0  0  0  0  0  0  0  0  0
   -3.1221    1.2672    1.4778 O   0  0  0  0  0  0  0  0  0  0  0  0
  1  6  2  0  0  0  0
  1  2  1  0  0  0  0
  1 14  1  0  0  0  0
  2  3  2  0  0  0  0
  2 13  1  0  0  0  0
  3  4  1  0  0  0  0
  3 12  1  0  0  0  0
  4  5  2  0  0  0  0
  4  9  1  0  0  0  0
  5  6  1  0  0  0  0
  5  8  1  0  0  0  0
  6  7  1  0  0  0  0
  9 10  2  0  0  0  0
  9 11  2  0  0  0  0
  9 17  1  0  0  0  0
 14 15  2  0  0  0  0
 14 16  2  0  0  0  0
 14 18  1  0  0  0  0
M  END
$$$$
ZINC06210127
 OpenBabel01252620473D

 32 33  0  0  0  0  0  0  0  0999 V2000
   -5.4795    3.8252    1.1647 C   0  0  0  0  0  0  0  0  0  0  0  0
   -4.5000    3.2639    0.8424 C   0  0  0  0  0  0  0  0  0  0  0  0
   -3.2720    2.5601    0.4383 C   0  0  0  0  0  0  0  0  0  0  0  0
   -2.2049    3.5014    0.3064 O   0  0  0  0  0  0  0  0  0  0  0  0
   -0.9940    3.0124   -0.0631 C   0  0  0  0  0  0  0  0  0  0  0  0
   -0.8338    1.6569   -0.3011 C   0  0  0  0  0  0  0  0  0  0  0  0
    0.4007    1.1592   -0.6722 C   0  0  0  0  0  0  0  0  0  0  0  0
    1.4847    2.0094   -0.8207 C   0  0  0  0  0  0  0  0  0  0  0  0
    1.3445    3.3611   -0.5946 C   0  0  0  0  0  0  0  0  0  0  0  0
    0.1013    3.8789   -0.2126 C   0  0  0  0  0  0  0  0  0  0  0  0
   -0.0565    5.3178    0.0307 C   0  0  0  0  0  0  0  0  0  0  0  0
    0.9061    6.0027    0.6996 C   0  0  0  0  0  0  0  0  0  0  0  0
    2.1034    5.4997    1.4019 C   0  0  0  0  0  0  0  0  0  0  0  0
    2.3639    4.3117    1.4510 O   0  0  0  0  0  0  0  0  0  0  0  0
    2.8809    6.4054    1.9712 N   0  0  0  0  0  0  0  0  0  0  0  0
    2.5850    7.7201    1.9201 C   0  0  0  0  0  0  0  0  0  0  0  0
    3.4530    9.0323    2.5951 S   0  0  0  0  0  0  0  0  0  0  0  0
    1.0681    7.7609    0.9789 S   0  0  0  0  0  0  0  0  0  0  0  0
    4.0877    5.9702    2.6786 C   0  0  0  0  0  0  0  0  0  0  0  0
    3.7531    5.6986    4.1226 C   0  0  0  0  0  0  0  0  0  0  0  0
    2.6225    5.8528    4.5201 O   0  0  0  0  0  0  0  0  0  0  0  0
   -6.3555    4.3273    1.4529 H   0  0  0  0  0  0  0  0  0  0  0  0
   -3.4366    2.0613   -0.5168 H   0  0  0  0  0  0  0  0  0  0  0  0
   -3.0119    1.8197    1.1948 H   0  0  0  0  0  0  0  0  0  0  0  0
   -1.6743    0.9875   -0.1924 H   0  0  0  0  0  0  0  0  0  0  0  0
    0.5204    0.1010   -0.8520 H   0  0  0  0  0  0  0  0  0  0  0  0
    2.4440    1.6105   -1.1154 H   0  0  0  0  0  0  0  0  0  0  0  0
    2.1922    4.0200   -0.7116 H   0  0  0  0  0  0  0  0  0  0  0  0
   -0.9384    5.8316   -0.3224 H   0  0  0  0  0  0  0  0  0  0  0  0
    4.4710    5.0601    2.2171 H   0  0  0  0  0  0  0  0  0  0  0  0
    4.8442    6.7528    2.6219 H   0  0  0  0  0  0  0  0  0  0  0  0
    4.7110    5.2855    4.9673 O   0  0  0  0  0  1  0  0  0  0  0  0
  1  2  3  0  0  0  0
  1 22  1  0  0  0  0
  2  3  1  0  0  0  0
  3  4  1  0  0  0  0
  3 23  1  0  0  0  0
  3 24  1  0  0  0  0
  4  5  1  0  0  0  0
  5 10  2  0  0  0  0
  5  6  1  0  0  0  0
  6  7  2  0  0  0  0
  6 25  1  0  0  0  0
  7  8  1  0  0  0  0
  7 26  1  0  0  0  0
  8  9  2  0  0  0  0
  8 27  1  0  0  0  0
  9 10  1  0  0  0  0
  9 28  1  0  0  0  0
 10 11  1  0  0  0  0
 11 12  2  0  0  0  0
 11 29  1  0  0  0  0
 12 18  1  0  0  0  0
 12 13  1  0  0  0  0
 13 14  2  0  0  0  0
 13 15  1  0  0  0  0
 15 16  1  0  0  0  0
 15 19  1  0  0  0  0
 16 17  2  0  0  0  0
 16 18  1  0  0  0  0
 19 20  1  0  0  0  0
 19 30  1  0  0  0  0
 19 31  1  0  0  0  0
 20 21  2  0  0  0  0
 20 32  1  0  0  0  0
M  END
$$$$
ZINC19203415
 OpenBabel01252620473D

 31 31  0  0  0  0  0  0  0  0999 V2000
   -6.9980   -2.4959   -0.3858 C   0  0  0  0  0  0  0  0  0  0  0  0
   -5.9229   -2.5163   -1.4417 C   0  0  0  0  0  0  0  0  0  0  0  0
   -5.6530   -1.5035   -2.0519 O   0  5  0  0  0  0  0  0  0  0  0  0
   -5.2614   -3.6600   -1.7078 N   0  0  0  0  0  0  0  0  0  0  0  0
   -4.0800   -3.6824   -2.8681 S   0  0  0  0  0  0  0  0  0  0  0  0
   -4.6300   -3.0575   -4.0197 O   0  0  0  0  0  0  0  0  0  0  0  0
   -3.5609   -5.0049   -2.8937 O   0  0  0  0  0  0  0  0  0  0  0  0
   -2.7760   -2.6403   -2.3040 C   0  0  0  0  0  0  0  0  0  0  0  0
   -1.7509   -3.1694   -1.5413 C   0  0  0  0  0  0  0  0  0  0  0  0
   -0.7271   -2.3556   -1.0980 C   0  0  0  0  0  0  0  0  0  0  0  0
   -0.7279   -1.0039   -1.4186 C   0  0  0  0  0  0  0  0  0  0  0  0
   -1.7624   -0.4745   -2.1798 C   0  0  0  0  0  0  0  0  0  0  0  0
   -2.7796   -1.2952   -2.6255 C   0  0  0  0  0  0  0  0  0  0  0  0
    0.3067   -0.1775   -0.9716 N   0  0  0  0  0  0  0  0  0  0  0  0
    0.8146    0.7675   -1.7874 C   0  0  0  0  0  0  0  0  0  0  0  0
    0.4460    0.8342   -2.9438 O   0  0  0  0  0  0  0  0  0  0  0  0
    1.8228    1.7178   -1.2782 C   0  0  0  0  0  0  0  0  0  0  0  0
    1.7059    3.0286   -1.5463 C   0  0  0  0  0  0  0  0  0  0  0  0
    0.6607    3.5014   -2.4733 C   0  0  0  0  0  0  0  0  0  0  0  0
   -0.4176    2.9434   -2.5083 O   0  0  0  0  0  0  0  0  0  0  0  0
    0.9020    4.5524   -3.2814 O   0  0  0  0  0  1  0  0  0  0  0  0
   -7.0989   -3.4990    0.0541 H   0  0  0  0  0  0  0  0  0  0  0  0
   -7.9537   -2.1974   -0.8414 H   0  0  0  0  0  0  0  0  0  0  0  0
   -6.7260   -1.7764    0.4005 H   0  0  0  0  0  0  0  0  0  0  0  0
   -1.7509   -4.2203   -1.2924 H   0  0  0  0  0  0  0  0  0  0  0  0
    0.0735   -2.7696   -0.5029 H   0  0  0  0  0  0  0  0  0  0  0  0
   -1.7683    0.5768   -2.4271 H   0  0  0  0  0  0  0  0  0  0  0  0
   -3.5813   -0.8854   -3.2219 H   0  0  0  0  0  0  0  0  0  0  0  0
    0.7065   -0.2983    0.0460 H   0  0  0  0  0  0  0  0  0  0  0  0
    2.6699    1.3523   -0.6791 H   0  0  0  0  0  0  0  0  0  0  0  0
    2.3897    3.7496   -1.0745 H   0  0  0  0  0  0  0  0  0  0  0  0
  1  2  1  0  0  0  0
  1 22  1  0  0  0  0
  1 23  1  0  0  0  0
  1 24  1  0  0  0  0
  2  3  1  0  0  0  0
  2  4  2  0  0  0  0
  4  5  1  0  0  0  0
  5  6  2  0  0  0  0
  5  7  2  0  0  0  0
  5  8  1  0  0  0  0
  8 13  2  0  0  0  0
  8  9  1  0  0  0  0
  9 10  2  0  0  0  0
  9 25  1  0  0  0  0
 10 11  1  0  0  0  0
 10 26  1  0  0  0  0
 11 12  2  0  0  0  0
 11 14  1  0  0  0  0
 12 13  1  0  0  0  0
 12 27  1  0  0  0  0
 13 28  1  0  0  0  0
 14 15  1  0  0  0  0
 14 29  1  0  0  0  0
 15 16  2  0  0  0  0
 15 17  1  0  0  0  0
 17 18  2  0  0  0  0
 17 30  1  0  0  0  0
 18 19  1  0  0  0  0
 18 31  1  0  0  0  0
 19 20  2  0  0  0  0
 19 21  1  0  0  0  0
M  CHG  1   3  -1
M  END
$$$$
ZINC17652865
 OpenBabel01252620473D

 53 55  0  0  0  0  0  0  0  0999 V2000
   -0.0184    1.5028    0.0103 C   0  0  0  0  0  0  0  0  0  0  0  0
    0.0021   -0.0041    0.0020 C   0  0  0  0  0  0  0  0  0  0  0  0
    0.0057   -0.6863   -1.2019 C   0  0  0  0  0  0  0  0  0  0  0  0
    0.0249   -2.0655   -1.2165 C   0  0  0  0  0  0  0  0  0  0  0  0
    0.0405   -2.7730   -0.0133 C   0  0  0  0  0  0  0  0  0  0  0  0
    0.0368   -2.0788    1.1974 C   0  0  0  0  0  0  0  0  0  0  0  0
    0.0229   -0.6991    1.1980 C   0  0  0  0  0  0  0  0  0  0  0  0
    0.0245    0.0523    2.5043 C   0  0  0  0  0  0  0  0  0  0  0  0
    0.0606   -4.2513   -0.0214 C   0  0  0  0  0  0  0  0  0  0  0  0
    0.0742   -4.8647    1.0279 O   0  0  0  0  0  0  0  0  0  0  0  0
    0.0638   -4.9187   -1.1923 N   0  0  0  0  0  0  0  0  0  0  0  0
    0.0836   -6.3836   -1.2003 C   0  0  0  0  0  0  0  0  0  0  0  0
    0.0832   -6.8781   -2.6239 C   0  0  0  0  0  0  0  0  0  0  0  0
    0.0678   -6.0880   -3.5379 O   0  0  0  0  0  0  0  0  0  0  0  0
    0.0998   -8.1963   -2.8764 O   0  0  0  0  0  0  0  0  0  0  0  0
    0.0983   -8.5940   -4.2490 C   0  0  0  0  0  0  0  0  0  0  0  0
    0.1183  -10.0983   -4.3361 C   0  0  0  0  0  0  0  0  0  0  0  0
    0.1325  -10.7644   -3.3227 O   0  0  0  0  0  0  0  0  0  0  0  0
    0.1204  -10.7036   -5.5403 N   0  0  0  0  0  0  0  0  0  0  0  0
    0.1399  -12.1660   -5.6251 C   0  0  0  0  0  0  0  0  0  0  0  0
    0.1383  -12.5918   -7.0946 C   0  0  0  0  0  0  0  0  0  0  0  0
    0.1583  -14.0962   -7.1818 C   0  0  0  0  0  0  0  0  0  0  0  0
   -0.8591  -14.9059   -7.2285 N   0  0  0  0  0  0  0  0  0  0  0  0
   -0.7094  -16.2443   -7.3068 C   0  0  0  0  0  0  0  0  0  0  0  0
   -1.6842  -17.2622   -7.3652 C   0  0  0  0  0  0  0  0  0  0  0  0
   -1.3153  -18.5703   -7.4410 C   0  0  0  0  0  0  0  0  0  0  0  0
    0.0199  -18.9492   -7.4635 C   0  0  0  0  0  0  0  0  0  0  0  0
    1.0040  -17.9801   -7.4084 C   0  0  0  0  0  0  0  0  0  0  0  0
    0.6420  -16.6571   -7.3317 C   0  0  0  0  0  0  0  0  0  0  0  0
    1.5017  -15.1079   -7.2482 S   0  0  0  0  0  0  0  0  0  0  0  0
    1.0042    1.8801    0.0026 H   0  0  0  0  0  0  0  0  0  0  0  0
   -0.5455    1.8639   -0.8728 H   0  0  0  0  0  0  0  0  0  0  0  0
   -0.5286    1.8543    0.9071 H   0  0  0  0  0  0  0  0  0  0  0  0
   -0.0068   -0.1377   -2.1321 H   0  0  0  0  0  0  0  0  0  0  0  0
    0.0273   -2.5967   -2.1568 H   0  0  0  0  0  0  0  0  0  0  0  0
    0.0488   -2.6203    2.1318 H   0  0  0  0  0  0  0  0  0  0  0  0
   -1.0026    0.2192    2.8288 H   0  0  0  0  0  0  0  0  0  0  0  0
    0.5535   -0.5307    3.2581 H   0  0  0  0  0  0  0  0  0  0  0  0
    0.5238    1.0120    2.3708 H   0  0  0  0  0  0  0  0  0  0  0  0
    0.0529   -4.4292   -2.0296 H   0  0  0  0  0  0  0  0  0  0  0  0
    0.9811   -6.7376   -0.6930 H   0  0  0  0  0  0  0  0  0  0  0  0
   -0.7987   -6.7618   -0.6840 H   0  0  0  0  0  0  0  0  0  0  0  0
   -0.7994   -8.2137   -4.7364 H   0  0  0  0  0  0  0  0  0  0  0  0
    0.9804   -8.1895   -4.7454 H   0  0  0  0  0  0  0  0  0  0  0  0
    0.1091  -10.1710   -6.3509 H   0  0  0  0  0  0  0  0  0  0  0  0
    1.0376  -12.5463   -5.1376 H   0  0  0  0  0  0  0  0  0  0  0  0
   -0.7422  -12.5705   -5.1286 H   0  0  0  0  0  0  0  0  0  0  0  0
   -0.7594  -12.2115   -7.5821 H   0  0  0  0  0  0  0  0  0  0  0  0
    1.0203  -12.1874   -7.5911 H   0  0  0  0  0  0  0  0  0  0  0  0
   -2.7321  -17.0015   -7.3493 H   0  0  0  0  0  0  0  0  0  0  0  0
   -2.0799  -19.3318   -7.4843 H   0  0  0  0  0  0  0  0  0  0  0  0
    0.2879  -19.9937   -7.5233 H   0  0  0  0  0  0  0  0  0  0  0  0
    2.0469  -18.2602   -7.4254 H   0  0  0  0  0  0  0  0  0  0  0  0
  1  2  1  0  0  0  0
  1 31  1  0  0  0  0
  1 32  1  0  0  0  0
  1 33  1  0  0  0  0
  2  7  2  0  0  0  0
  2  3  1  0  0  0  0
  3  4  2  0  0  0  0
  3 34  1  0  0  0  0
  4  5  1  0  0  0  0
  4 35  1  0  0  0  0
  5  6  2  0  0  0  0
  5  9  1  0  0  0  0
  6  7  1  0  0  0  0
  6 36  1  0  0  0  0
  7  8  1  0  0  0  0
  8 37  1  0  0  0  0
  8 38  1  0  0  0  0
  8 39  1  0  0  0  0
  9 10  2  0  0  0  0
  9 11  1  0  0  0  0
 11 12  1  0  0  0  0
 11 40  1  0  0  0  0
 12 13  1  0  0  0  0
 12 41  1  0  0  0  0
 12 42  1  0  0  0  0
 13 14  2  0  0  0  0
 13 15  1  0  0  0  0
 15 16  1  0  0  0  0
 16 17  1  0  0  0  0
 16 43  1  0  0  0  0
 16 44  1  0  0  0  0
 17 18  2  0  0  0  0
 17 19  1  0  0  0  0
 19 20  1  0  0  0  0
 19 45  1  0  0  0  0
 20 21  1  0  0  0  0
 20 46  1  0  0  0  0
 20 47  1  0  0  0  0
 21 22  1  0  0  0  0
 21 48  1  0  0  0  0
 21 49  1  0  0  0  0
 22 30  1  0  0  0  0
 22 23  2  0  0  0  0
 23 24  1  0  0  0  0
 24 29  2  0  0  0  0
 24 25  1  0  0  0  0
 25 26  2  0  0  0  0
 25 50  1  0  0  0  0
 26 27  1  0  0  0  0
 26 51  1  0  0  0  0
 27 28  2  0  0  0  0
 27 52  1  0  0  0  0
 28 29  1  0  0  0  0
 28 53  1  0  0  0  0
 29 30  1  0  0  0  0
M  END
$$$$
ZINC40092191
 OpenBabel01252620473D

 61 63  0  0  1  0  0  0  0  0999 V2000
   -0.1520    1.6295    0.1762 C   0  0  0  0  0  0  0  0  0  0  0  0
   -0.1068    0.1004    0.1992 C   0  0  0  0  0  0  0  0  0  0  0  0
   -1.5298   -0.4534    0.1040 C   0  0  0  0  0  0  0  0  0  0  0  0
   -1.4876   -1.8817    0.1255 O   0  0  0  0  0  0  0  0  0  0  0  0
   -2.6766   -2.5353    0.0484 C   0  0  0  0  0  0  0  0  0  0  0  0
   -3.8594   -1.8168   -0.0518 C   0  0  0  0  0  0  0  0  0  0  0  0
   -5.0665   -2.4835   -0.1305 C   0  0  0  0  0  0  0  0  0  0  0  0
   -5.0968   -3.8659   -0.1095 C   0  0  0  0  0  0  0  0  0  0  0  0
   -3.9198   -4.5841   -0.0093 C   0  0  0  0  0  0  0  0  0  0  0  0
   -2.7093   -3.9220    0.0640 C   0  0  0  0  0  0  0  0  0  0  0  0
   -3.9566   -6.0904    0.0138 C   0  0  2  0  0  0  0  0  0  0  0  0
   -2.9720   -6.4852    0.2645 H   0  0  0  0  0  0  0  0  0  0  0  0
   -4.4020   -6.6199   -1.3293 C   0  0  0  0  0  0  0  0  0  0  0  0
   -5.5423   -7.3165   -1.1159 C   0  0  0  0  0  0  0  0  0  0  0  0
   -5.8764   -7.2723    0.3231 C   0  0  0  0  0  0  0  0  0  0  0  0
   -6.8431   -7.8047    0.8312 O   0  0  0  0  0  0  0  0  0  0  0  0
   -4.9501   -6.5560    0.9885 N   0  0  0  0  0  0  0  0  0  0  0  0
   -4.9362   -6.2883    2.4288 C   0  0  0  0  0  0  0  0  0  0  0  0
   -5.7043   -4.9964    2.7149 C   0  0  0  0  0  0  0  0  0  0  0  0
   -7.0811   -5.1761    2.3771 O   0  0  0  0  0  0  0  0  0  0  0  0
   -6.2626   -7.9523   -2.0687 O   0  5  0  0  0  0  0  0  0  0  0  0
   -3.7285   -6.4178   -2.6161 C   0  0  0  0  0  0  0  0  0  0  0  0
   -4.2690   -5.7658   -3.4901 O   0  0  0  0  0  0  0  0  0  0  0  0
   -2.3948   -7.0050   -2.8513 C   0  0  0  0  0  0  0  0  0  0  0  0
   -1.8244   -7.8540   -1.8976 C   0  0  0  0  0  0  0  0  0  0  0  0
   -0.5806   -8.3994   -2.1208 C   0  0  0  0  0  0  0  0  0  0  0  0
    0.1088   -8.1074   -3.2928 C   0  0  0  0  0  0  0  0  0  0  0  0
   -0.4545   -7.2635   -4.2433 C   0  0  0  0  0  0  0  0  0  0  0  0
   -1.7009   -6.7186   -4.0307 C   0  0  0  0  0  0  0  0  0  0  0  0
    0.2976   -6.9498   -5.5110 C   0  0  0  0  0  0  0  0  0  0  0  0
    1.3348   -8.6472   -3.5090 O   0  0  0  0  0  0  0  0  0  0  0  0
    1.8546   -9.5051   -2.4912 C   0  0  0  0  0  0  0  0  0  0  0  0
    3.2148  -10.0065   -2.9032 C   0  0  0  0  0  0  0  0  0  0  0  0
    4.2007  -10.0093   -2.0405 C   0  0  0  0  0  0  0  0  0  0  0  0
    0.8618    2.0241    0.2440 H   0  0  0  0  0  0  0  0  0  0  0  0
   -0.6112    1.9655   -0.7535 H   0  0  0  0  0  0  0  0  0  0  0  0
   -0.7389    1.9884    1.0217 H   0  0  0  0  0  0  0  0  0  0  0  0
    0.4801   -0.2585   -0.6463 H   0  0  0  0  0  0  0  0  0  0  0  0
    0.3524   -0.2356    1.1290 H   0  0  0  0  0  0  0  0  0  0  0  0
   -2.1167   -0.0945    0.9495 H   0  0  0  0  0  0  0  0  0  0  0  0
   -1.9890   -0.1175   -0.8257 H   0  0  0  0  0  0  0  0  0  0  0  0
   -3.8362   -0.7372   -0.0679 H   0  0  0  0  0  0  0  0  0  0  0  0
   -5.9874   -1.9247   -0.2081 H   0  0  0  0  0  0  0  0  0  0  0  0
   -6.0417   -4.3854   -0.1711 H   0  0  0  0  0  0  0  0  0  0  0  0
   -1.7898   -4.4835    0.1377 H   0  0  0  0  0  0  0  0  0  0  0  0
   -5.4087   -7.1165    2.9569 H   0  0  0  0  0  0  0  0  0  0  0  0
   -3.9060   -6.1813    2.7685 H   0  0  0  0  0  0  0  0  0  0  0  0
   -5.6190   -4.7498    3.7732 H   0  0  0  0  0  0  0  0  0  0  0  0
   -5.2866   -4.1856    2.1181 H   0  0  0  0  0  0  0  0  0  0  0  0
   -7.6296   -4.3952    2.5332 H   0  0  0  0  0  0  0  0  0  0  0  0
   -2.3589   -8.0810   -0.9870 H   0  0  0  0  0  0  0  0  0  0  0  0
   -0.1392   -9.0549   -1.3847 H   0  0  0  0  0  0  0  0  0  0  0  0
   -2.1398   -6.0670   -4.7718 H   0  0  0  0  0  0  0  0  0  0  0  0
    0.0421   -7.6830   -6.2760 H   0  0  0  0  0  0  0  0  0  0  0  0
    0.0252   -5.9530   -5.8579 H   0  0  0  0  0  0  0  0  0  0  0  0
    1.3694   -6.9864   -5.3162 H   0  0  0  0  0  0  0  0  0  0  0  0
    1.9395   -8.9504   -1.5568 H   0  0  0  0  0  0  0  0  0  0  0  0
    1.1824  -10.3517   -2.3514 H   0  0  0  0  0  0  0  0  0  0  0  0
    3.3767  -10.3634   -3.9095 H   0  0  0  0  0  0  0  0  0  0  0  0
    4.0387   -9.6524   -1.0342 H   0  0  0  0  0  0  0  0  0  0  0  0
    5.1754  -10.3686   -2.3357 H   0  0  0  0  0  0  0  0  0  0  0  0
  1  2  1  0  0  0  0
  1 35  1  0  0  0  0
  1 36  1  0  0  0  0
  1 37  1  0  0  0  0
  2  3  1  0  0  0  0
  2 38  1  0  0  0  0
  2 39  1  0  0  0  0
  3  4  1  0  0  0  0
  3 40  1  0  0  0  0
  3 41  1  0  0  0  0
  4  5  1  0  0  0  0
  5 10  2  0  0  0  0
  5  6  1  0  0  0  0
  6  7  2  0  0  0  0
  6 42  1  0  0  0  0
  7  8  1  0  0  0  0
  7 43  1  0  0  0  0
  8  9  2  0  0  0  0
  8 44  1  0  0  0  0
  9 10  1  0  0  0  0
  9 11  1  0  0  0  0
 10 45  1  0  0  0  0
 11 12  1  1  0  0  0
 11 17  1  0  0  0  0
 11 13  1  0  0  0  0
 13 14  2  0  0  0  0
 13 22  1  0  0  0  0
 14 15  1  0  0  0  0
 14 21  1  0  0  0  0
 15 16  2  0  0  0  0
 15 17  1  0  0  0  0
 17 18  1  0  0  0  0
 18 19  1  0  0  0  0
 18 46  1  0  0  0  0
 18 47  1  0  0  0  0
 19 20  1  0  0  0  0
 19 48  1  0  0  0  0
 19 49  1  0  0  0  0
 20 50  1  0  0  0  0
 22 23  2  0  0  0  0
 22 24  1  0  0  0  0
 24 29  2  0  0  0  0
 24 25  1  0  0  0  0
 25 26  2  0  0  0  0
 25 51  1  0  0  0  0
 26 27  1  0  0  0  0
 26 52  1  0  0  0  0
 27 28  2  0  0  0  0
 27 31  1  0  0  0  0
 28 29  1  0  0  0  0
 28 30  1  0  0  0  0
 29 53  1  0  0  0  0
 30 54  1  0  0  0  0
 30 55  1  0  0  0  0
 30 56  1  0  0  0  0
 31 32  1  0  0  0  0
 32 33  1  0  0  0  0
 32 57  1  0  0  0  0
 32 58  1  0  0  0  0
 33 34  2  0  0  0  0
 33 59  1  0  0  0  0
 34 60  1  0  0  0  0
 34 61  1  0  0  0  0
M  CHG  1  21  -1
M  END
$$$$
ZINC35181171
 OpenBabel01252620473D

 39 39  0  0  1  0  0  0  0  0999 V2000
   -0.0187    1.5258    0.0104 C   0  0  0  0  0  0  0  0  0  0  0  0
    0.0021   -0.0041    0.0020 C   0  0  0  0  0  0  0  0  0  0  0  0
    0.7182   -0.4975   -1.2568 C   0  0  1  0  0  0  0  0  0  0  0  0
   -0.0218    0.0093   -2.4963 C   0  0  0  0  0  0  0  0  0  0  0  0
    2.1320    0.0241   -1.2675 C   0  0  0  0  0  0  0  0  0  0  0  0
    3.0693   -0.7555   -1.2806 O   0  0  0  0  0  0  0  0  0  0  0  0
    2.3385    1.2257   -1.2630 O   0  0  0  0  0  1  0  0  0  0  0  0
    0.7381   -1.9623   -1.2648 N   0  0  0  0  0  0  0  0  0  0  0  0
    1.3211   -2.6228   -2.2848 C   0  0  0  0  0  0  0  0  0  0  0  0
    1.8306   -2.0028   -3.1983 O   0  0  0  0  0  0  0  0  0  0  0  0
    1.3394   -3.9704   -2.2922 N   0  0  0  0  0  0  0  0  0  0  0  0
    1.9731   -4.6883   -3.4010 C   0  0  0  0  0  0  0  0  0  0  0  0
    1.8578   -6.1729   -3.1693 C   0  0  0  0  0  0  0  0  0  0  0  0
    2.9297   -6.8778   -2.6565 C   0  0  0  0  0  0  0  0  0  0  0  0
    2.8244   -8.2407   -2.4437 C   0  0  0  0  0  0  0  0  0  0  0  0
    1.6456   -8.9007   -2.7440 C   0  0  0  0  0  0  0  0  0  0  0  0
    0.5718   -8.1994   -3.2568 C   0  0  0  0  0  0  0  0  0  0  0  0
    0.6736   -6.8316   -3.4656 C   0  0  0  0  0  0  0  0  0  0  0  0
   -0.3840   -6.1387   -3.9645 O   0  0  0  0  0  0  0  0  0  0  0  0
   -1.5715   -6.8819   -4.2464 C   0  0  0  0  0  0  0  0  0  0  0  0
    4.1728   -9.1244   -1.7998 Cl  0  0  0  0  0  0  0  0  0  0  0  0
    1.0039    1.9031    0.0027 H   0  0  0  0  0  0  0  0  0  0  0  0
   -0.5459    1.8868   -0.8726 H   0  0  0  0  0  0  0  0  0  0  0  0
   -0.5289    1.8773    0.9072 H   0  0  0  0  0  0  0  0  0  0  0  0
    0.5293   -0.3651    0.8851 H   0  0  0  0  0  0  0  0  0  0  0  0
   -1.0205   -0.3814    0.0098 H   0  0  0  0  0  0  0  0  0  0  0  0
   -0.0366    1.0992   -2.4903 H   0  0  0  0  0  0  0  0  0  0  0  0
    0.4884   -0.3422   -3.3931 H   0  0  0  0  0  0  0  0  0  0  0  0
   -1.0444   -0.3679   -2.4886 H   0  0  0  0  0  0  0  0  0  0  0  0
    0.3316   -2.4569   -0.5361 H   0  0  0  0  0  0  0  0  0  0  0  0
    0.9329   -4.4650   -1.5635 H   0  0  0  0  0  0  0  0  0  0  0  0
    1.4756   -4.4265   -4.3349 H   0  0  0  0  0  0  0  0  0  0  0  0
    3.0254   -4.4103   -3.4595 H   0  0  0  0  0  0  0  0  0  0  0  0
    3.8506   -6.3646   -2.4219 H   0  0  0  0  0  0  0  0  0  0  0  0
    1.5654   -9.9647   -2.5775 H   0  0  0  0  0  0  0  0  0  0  0  0
   -0.3478   -8.7149   -3.4914 H   0  0  0  0  0  0  0  0  0  0  0  0
   -1.3512   -7.6523   -4.9854 H   0  0  0  0  0  0  0  0  0  0  0  0
   -1.9335   -7.3496   -3.3308 H   0  0  0  0  0  0  0  0  0  0  0  0
   -2.3358   -6.2106   -4.6382 H   0  0  0  0  0  0  0  0  0  0  0  0
  1  2  1  0  0  0  0
  1 22  1  0  0  0  0
  1 23  1  0  0  0  0
  1 24  1  0  0  0  0
  2  3  1  0  0  0  0
  2 25  1  0  0  0  0
  2 26  1  0  0  0  0
  3  4  1  0  0  0  0
  3  5  1  6  0  0  0
  3  8  1  0  0  0  0
  4 27  1  0  0  0  0
  4 28  1  0  0  0  0
  4 29  1  0  0  0  0
  5  6  2  0  0  0  0
  5  7  1  0  0  0  0
  8  9  1  0  0  0  0
  8 30  1  0  0  0  0
  9 10  2  0  0  0  0
  9 11  1  0  0  0  0
 11 12  1  0  0  0  0
 11 31  1  0  0  0  0
 12 13  1  0  0  0  0
 12 32  1  0  0  0  0
 12 33  1  0  0  0  0
 13 18  2  0  0  0  0
 13 14  1  0  0  0  0
 14 15  2  0  0  0  0
 14 34  1  0  0  0  0
 15 16  1  0  0  0  0
 15 21  1  0  0  0  0
 16 17  2  0  0  0  0
 16 35  1  0  0  0  0
 17 18  1  0  0  0  0
 17 36  1  0  0  0  0
 18 19  1  0  0  0  0
 19 20  1  0  0  0  0
 20 37  1  0  0  0  0
 20 38  1  0  0  0  0
 20 39  1  0  0  0  0
M  END
$$$$
ZINC13251085
 OpenBabel01252620473D

 38 39  0  0  1  0  0  0  0  0999 V2000
    0.5915   -0.4975   -4.4135 C   0  0  0  0  0  0  0  0  0  0  0  0
   -0.0155   -0.1931   -3.1300 O   0  0  0  0  0  0  0  0  0  0  0  0
   -0.3452    1.0876   -2.9003 C   0  0  0  0  0  0  0  0  0  0  0  0
   -0.1337    1.9265   -3.7436 O   0  0  0  0  0  0  0  0  0  0  0  0
   -0.9792    1.4790   -1.5904 C   0  0  1  0  0  0  0  0  0  0  0  0
   -1.9177    0.9390   -1.4652 H   0  0  0  0  0  0  0  0  0  0  0  0
   -0.0323    1.1292   -0.4407 C   0  0  0  0  0  0  0  0  0  0  0  0
   -0.7294    1.3661    0.8742 C   0  0  0  0  0  0  0  0  0  0  0  0
   -0.9532    0.4430    1.8288 C   0  0  0  0  0  0  0  0  0  0  0  0
   -1.6070    1.0791    2.8494 N   0  0  0  0  0  0  0  0  0  0  0  0
   -1.9089    0.6667    3.7090 H   0  0  0  0  0  0  0  0  0  0  0  0
   -1.7682    2.3676    2.4786 C   0  0  0  0  0  0  0  0  0  0  0  0
   -1.2409    2.5319    1.2963 N   0  0  0  0  0  0  0  0  0  0  0  0
   -1.2410    2.9205   -1.5860 N   0  0  0  0  0  0  0  0  0  0  0  0
   -2.7031    3.4981   -2.1066 S   0  0  0  0  0  0  0  0  0  0  0  0
   -2.6338    4.9148   -2.0212 O   0  0  0  0  0  0  0  0  0  0  0  0
   -2.9979    2.8216   -3.3210 O   0  0  0  0  0  0  0  0  0  0  0  0
   -3.9141    2.9816   -0.9356 C   0  0  0  0  0  0  0  0  0  0  0  0
   -4.8485    2.0301   -1.2863 C   0  0  0  0  0  0  0  0  0  0  0  0
   -5.8074    1.6215   -0.3569 C   0  0  0  0  0  0  0  0  0  0  0  0
   -5.8134    2.1803    0.9234 C   0  0  0  0  0  0  0  0  0  0  0  0
   -4.8740    3.1307    1.2619 C   0  0  0  0  0  0  0  0  0  0  0  0
   -3.9220    3.5281    0.3371 C   0  0  0  0  0  0  0  0  0  0  0  0
   -2.7383    4.7207    0.7731 Cl  0  0  0  0  0  0  0  0  0  0  0  0
   -6.8105    0.6026   -0.7258 C   0  0  0  0  0  0  0  0  0  0  0  0
   -6.8027    0.1180   -1.8397 O   0  0  0  0  0  0  0  0  0  0  0  0
   -0.0954   -0.2237   -5.2143 H   0  0  0  0  0  0  0  0  0  0  0  0
    1.5177    0.0672   -4.5204 H   0  0  0  0  0  0  0  0  0  0  0  0
    0.8078   -1.5643   -4.4693 H   0  0  0  0  0  0  0  0  0  0  0  0
    0.2574    0.0810   -0.5147 H   0  0  0  0  0  0  0  0  0  0  0  0
    0.8570    1.7568   -0.4987 H   0  0  0  0  0  0  0  0  0  0  0  0
   -0.6695   -0.5986    1.7963 H   0  0  0  0  0  0  0  0  0  0  0  0
   -2.2529    3.1351    3.0639 H   0  0  0  0  0  0  0  0  0  0  0  0
   -0.5579    3.5365   -1.2782 H   0  0  0  0  0  0  0  0  0  0  0  0
   -4.8386    1.6014   -2.2775 H   0  0  0  0  0  0  0  0  0  0  0  0
   -6.5527    1.8686    1.6464 H   0  0  0  0  0  0  0  0  0  0  0  0
   -4.8776    3.5635    2.2514 H   0  0  0  0  0  0  0  0  0  0  0  0
   -7.7343    0.2105    0.1730 O   0  0  0  0  0  1  0  0  0  0  0  0
  1  2  1  0  0  0  0
  1 27  1  0  0  0  0
  1 28  1  0  0  0  0
  1 29  1  0  0  0  0
  2  3  1  0  0  0  0
  3  4  2  0  0  0  0
  3  5  1  0  0  0  0
  5  6  1  1  0  0  0
  5  7  1  0  0  0  0
  5 14  1  0  0  0  0
  7  8  1  0  0  0  0
  7 30  1  0  0  0  0
  7 31  1  0  0  0  0
  8 13  1  0  0  0  0
  8  9  2  0  0  0  0
  9 10  1  0  0  0  0
  9 32  1  0  0  0  0
 10 11  1  0  0  0  0
 10 12  1  0  0  0  0
 12 13  2  0  0  0  0
 12 33  1  0  0  0  0
 14 15  1  0  0  0  0
 14 34  1  0  0  0  0
 15 16  2  0  0  0  0
 15 17  2  0  0  0  0
 15 18  1  0  0  0  0
 18 23  2  0  0  0  0
 18 19  1  0  0  0  0
 19 20  2  0  0  0  0
 19 35  1  0  0  0  0
 20 21  1  0  0  0  0
 20 25  1  0  0  0  0
 21 22  2  0  0  0  0
 21 36  1  0  0  0  0
 22 23  1  0  0  0  0
 22 37  1  0  0  0  0
 23 24  1  0  0  0  0
 25 26  2  0  0  0  0
 25 38  1  0  0  0  0
M  END
$$$$
ZINC59169163
 OpenBabel01252620473D

 72 75  0  0  0  0  0  0  0  0999 V2000
    1.0525   -1.0888    1.3444 C   0  0  0  0  0  0  0  0  0  0  0  0
    0.8987   -0.2834    0.1741 O   0  0  0  0  0  0  0  0  0  0  0  0
    1.3104   -0.8218   -1.0038 C   0  0  0  0  0  0  0  0  0  0  0  0
    1.8462   -2.1018   -1.0328 C   0  0  0  0  0  0  0  0  0  0  0  0
    2.2650   -2.6496   -2.2299 C   0  0  0  0  0  0  0  0  0  0  0  0
    2.1520   -1.9249   -3.4012 C   0  0  0  0  0  0  0  0  0  0  0  0
    1.6171   -0.6449   -3.3775 C   0  0  0  0  0  0  0  0  0  0  0  0
    1.1904   -0.0952   -2.1781 C   0  0  0  0  0  0  0  0  0  0  0  0
    1.5063    0.0673   -4.5295 O   0  0  0  0  0  0  0  0  0  0  0  0
    0.9463    1.3783   -4.4305 C   0  0  0  0  0  0  0  0  0  0  0  0
    2.6107   -2.5251   -4.7052 C   0  0  0  0  0  0  0  0  0  0  0  0
    1.4507   -3.0234   -5.4482 N   0  0  0  0  0  0  0  0  0  0  0  0
    0.8066   -2.1762   -6.4550 C   0  0  0  0  0  0  0  0  0  0  0  0
    1.4603   -2.4163   -7.8173 C   0  0  0  0  0  0  0  0  0  0  0  0
    0.7876   -1.5315   -8.8688 C   0  0  0  0  0  0  0  0  0  0  0  0
    1.4153   -1.7620  -10.1768 N   0  0  0  0  0  0  0  0  0  0  0  0
    2.8106   -1.2991  -10.1806 C   0  0  0  0  0  0  0  0  0  0  0  0
    3.4428   -1.6119  -11.5394 C   0  0  0  0  0  0  0  0  0  0  0  0
    2.6665   -0.9999  -12.5729 O   0  0  0  0  0  0  0  0  0  0  0  0
    1.3023   -1.4285  -12.5988 C   0  0  0  0  0  0  0  0  0  0  0  0
    0.6485   -1.1139  -11.2507 C   0  0  0  0  0  0  0  0  0  0  0  0
    0.9760   -4.2613   -5.2056 C   0  0  0  0  0  0  0  0  0  0  0  0
    1.6437   -5.2013   -3.9401 S   0  0  0  0  0  0  0  0  0  0  0  0
   -0.0244   -4.7591   -5.9592 N   0  0  0  0  0  0  0  0  0  0  0  0
   -0.4524   -6.0796   -5.7713 C   0  0  0  0  0  0  0  0  0  0  0  0
   -0.6886   -6.8961   -6.8694 C   0  0  0  0  0  0  0  0  0  0  0  0
   -1.1101   -8.1978   -6.6836 C   0  0  0  0  0  0  0  0  0  0  0  0
   -1.2975   -8.6901   -5.4000 C   0  0  0  0  0  0  0  0  0  0  0  0
   -1.0617   -7.8748   -4.3024 C   0  0  0  0  0  0  0  0  0  0  0  0
   -0.6351   -6.5745   -4.4869 C   0  0  0  0  0  0  0  0  0  0  0  0
   -1.7129   -9.9717   -5.2177 O   0  0  0  0  0  0  0  0  0  0  0  0
   -1.8306  -10.7662   -6.3137 C   0  0  0  0  0  0  0  0  0  0  0  0
   -0.6978  -11.3076   -6.9045 C   0  0  0  0  0  0  0  0  0  0  0  0
   -0.8202  -12.1154   -8.0184 C   0  0  0  0  0  0  0  0  0  0  0  0
   -2.0702  -12.3845   -8.5447 C   0  0  0  0  0  0  0  0  0  0  0  0
   -3.2006  -11.8459   -7.9582 C   0  0  0  0  0  0  0  0  0  0  0  0
   -3.0842  -11.0421   -6.8408 C   0  0  0  0  0  0  0  0  0  0  0  0
    0.4824   -2.0106    1.2286 H   0  0  0  0  0  0  0  0  0  0  0  0
    2.1065   -1.3286    1.4846 H   0  0  0  0  0  0  0  0  0  0  0  0
    0.6858   -0.5415    2.2129 H   0  0  0  0  0  0  0  0  0  0  0  0
    1.9362   -2.6698   -0.1187 H   0  0  0  0  0  0  0  0  0  0  0  0
    2.6817   -3.6458   -2.2504 H   0  0  0  0  0  0  0  0  0  0  0  0
    0.7696    0.8993   -2.1583 H   0  0  0  0  0  0  0  0  0  0  0  0
   -0.0647    1.3122   -4.0287 H   0  0  0  0  0  0  0  0  0  0  0  0
    1.5616    1.9871   -3.7679 H   0  0  0  0  0  0  0  0  0  0  0  0
    0.9151    1.8357   -5.4194 H   0  0  0  0  0  0  0  0  0  0  0  0
    3.1210   -1.7643   -5.2958 H   0  0  0  0  0  0  0  0  0  0  0  0
    3.2953   -3.3493   -4.5049 H   0  0  0  0  0  0  0  0  0  0  0  0
   -0.2537   -2.4223   -6.5124 H   0  0  0  0  0  0  0  0  0  0  0  0
    0.9220   -1.1289   -6.1762 H   0  0  0  0  0  0  0  0  0  0  0  0
    2.5206   -2.1703   -7.7600 H   0  0  0  0  0  0  0  0  0  0  0  0
    1.3449   -3.4637   -8.0962 H   0  0  0  0  0  0  0  0  0  0  0  0
   -0.2727   -1.7775   -8.9262 H   0  0  0  0  0  0  0  0  0  0  0  0
    0.9030   -0.4841   -8.5900 H   0  0  0  0  0  0  0  0  0  0  0  0
    2.8377   -0.2236  -10.0054 H   0  0  0  0  0  0  0  0  0  0  0  0
    3.3659   -1.8106   -9.3944 H   0  0  0  0  0  0  0  0  0  0  0  0
    4.4593   -1.2195  -11.5669 H   0  0  0  0  0  0  0  0  0  0  0  0
    3.4643   -2.6911  -11.6910 H   0  0  0  0  0  0  0  0  0  0  0  0
    0.7708   -0.9035  -13.3925 H   0  0  0  0  0  0  0  0  0  0  0  0
    1.2616   -2.5024  -12.7812 H   0  0  0  0  0  0  0  0  0  0  0  0
   -0.3745   -1.4902  -11.2456 H   0  0  0  0  0  0  0  0  0  0  0  0
    0.6410   -0.0354  -11.0927 H   0  0  0  0  0  0  0  0  0  0  0  0
   -0.4480   -4.2030   -6.6317 H   0  0  0  0  0  0  0  0  0  0  0  0
   -0.5431   -6.5129   -7.8686 H   0  0  0  0  0  0  0  0  0  0  0  0
   -1.2942   -8.8328   -7.5376 H   0  0  0  0  0  0  0  0  0  0  0  0
   -1.2078   -8.2585   -3.3035 H   0  0  0  0  0  0  0  0  0  0  0  0
   -0.4477   -5.9412   -3.6323 H   0  0  0  0  0  0  0  0  0  0  0  0
    0.2788  -11.0975   -6.4940 H   0  0  0  0  0  0  0  0  0  0  0  0
    0.0612  -12.5368   -8.4788 H   0  0  0  0  0  0  0  0  0  0  0  0
   -2.1637  -13.0163   -9.4156 H   0  0  0  0  0  0  0  0  0  0  0  0
   -4.1757  -12.0574   -8.3715 H   0  0  0  0  0  0  0  0  0  0  0  0
   -3.9678  -10.6253   -6.3804 H   0  0  0  0  0  0  0  0  0  0  0  0
  1  2  1  0  0  0  0
  1 38  1  0  0  0  0
  1 39  1  0  0  0  0
  1 40  1  0  0  0  0
  2  3  1  0  0  0  0
  3  8  2  0  0  0  0
  3  4  1  0  0  0  0
  4  5  2  0  0  0  0
  4 41  1  0  0  0  0
  5  6  1  0  0  0  0
  5 42  1  0  0  0  0
  6  7  2  0  0  0  0
  6 11  1  0  0  0  0
  7  8  1  0  0  0  0
  7  9  1  0  0  0  0
  8 43  1  0  0  0  0
  9 10  1  0  0  0  0
 10 44  1  0  0  0  0
 10 45  1  0  0  0  0
 10 46  1  0  0  0  0
 11 12  1  0  0  0  0
 11 47  1  0  0  0  0
 11 48  1  0  0  0  0
 12 13  1  0  0  0  0
 12 22  1  0  0  0  0
 13 14  1  0  0  0  0
 13 49  1  0  0  0  0
 13 50  1  0  0  0  0
 14 15  1  0  0  0  0
 14 51  1  0  0  0  0
 14 52  1  0  0  0  0
 15 16  1  0  0  0  0
 15 53  1  0  0  0  0
 15 54  1  0  0  0  0
 16 21  1  0  0  0  0
 16 17  1  0  0  0  0
 17 18  1  0  0  0  0
 17 55  1  0  0  0  0
 17 56  1  0  0  0  0
 18 19  1  0  0  0  0
 18 57  1  0  0  0  0
 18 58  1  0  0  0  0
 19 20  1  0  0  0  0
 20 21  1  0  0  0  0
 20 59  1  0  0  0  0
 20 60  1  0  0  0  0
 21 61  1  0  0  0  0
 21 62  1  0  0  0  0
 22 23  2  0  0  0  0
 22 24  1  0  0  0  0
 24 25  1  0  0  0  0
 24 63  1  0  0  0  0
 25 30  2  0  0  0  0
 25 26  1  0  0  0  0
 26 27  2  0  0  0  0
 26 64  1  0  0  0  0
 27 28  1  0  0  0  0
 27 65  1  0  0  0  0
 28 29  2  0  0  0  0
 28 31  1  0  0  0  0
 29 30  1  0  0  0  0
 29 66  1  0  0  0  0
 30 67  1  0  0  0  0
 31 32  1  0  0  0  0
 32 37  2  0  0  0  0
 32 33  1  0  0  0  0
 33 34  2  0  0  0  0
 33 68  1  0  0  0  0
 34 35  1  0  0  0  0
 34 69  1  0  0  0  0
 35 36  2  0  0  0  0
 35 70  1  0  0  0  0
 36 37  1  0  0  0  0
 36 71  1  0  0  0  0
 37 72  1  0  0  0  0
M  END
$$$$
ZINC04943035
 OpenBabel01252620473D

 36 37  0  0  0  0  0  0  0  0999 V2000
    1.0269    3.5357    0.0112 C   0  0  0  0  0  0  0  0  0  0  0  0
    1.2479    2.0218    0.0010 C   0  0  0  0  0  0  0  0  0  0  0  0
   -0.0164    1.3557    0.0095 O   0  0  0  0  0  0  0  0  0  0  0  0
    0.0021   -0.0041    0.0020 C   0  0  0  0  0  0  0  0  0  0  0  0
    1.2107   -0.6820   -0.0132 C   0  0  0  0  0  0  0  0  0  0  0  0
    1.2282   -2.0643   -0.0208 C   0  0  0  0  0  0  0  0  0  0  0  0
    0.0417   -2.7738   -0.0133 C   0  0  0  0  0  0  0  0  0  0  0  0
   -1.1682   -2.1036    0.0018 C   0  0  0  0  0  0  0  0  0  0  0  0
   -1.1922   -0.7174    0.0153 C   0  0  0  0  0  0  0  0  0  0  0  0
   -2.3808   -0.0565    0.0359 O   0  0  0  0  0  0  0  0  0  0  0  0
   -2.9659    0.2656   -1.2274 C   0  0  0  0  0  0  0  0  0  0  0  0
   -4.2687    0.9905   -1.0074 C   0  0  0  0  0  0  0  0  0  0  0  0
   -4.6577    1.2098    0.1202 O   0  0  0  0  0  0  0  0  0  0  0  0
   -5.0014    1.3952   -2.0637 N   0  0  0  0  0  0  0  0  0  0  0  0
   -2.7889   -3.0777    0.0120 Br  0  0  0  0  0  0  0  0  0  0  0  0
    2.5436   -2.7994   -0.0378 C   0  0  0  0  0  0  0  0  0  0  0  0
    2.9836   -3.0450    1.3378 N   0  0  0  0  0  0  0  0  0  0  0  0
    4.1844   -3.7160    1.5774 C   0  0  0  0  0  0  0  0  0  0  0  0
    4.6977   -3.9967    2.7572 N   0  0  0  0  0  0  0  0  0  0  0  0
    6.0307   -4.7475    1.2218 N   0  0  0  0  0  0  0  0  0  0  0  0
    5.0241   -4.1849    0.6532 N   0  0  0  0  0  0  0  0  0  0  0  0
    0.4745    3.8162    0.9081 H   0  0  0  0  0  0  0  0  0  0  0  0
    1.9913    4.0437    0.0048 H   0  0  0  0  0  0  0  0  0  0  0  0
    0.4575    3.8257   -0.8718 H   0  0  0  0  0  0  0  0  0  0  0  0
    1.8173    1.7317    0.8840 H   0  0  0  0  0  0  0  0  0  0  0  0
    1.8003    1.7413   -0.8958 H   0  0  0  0  0  0  0  0  0  0  0  0
    2.1391   -0.1303   -0.0187 H   0  0  0  0  0  0  0  0  0  0  0  0
    0.0595   -3.8536   -0.0190 H   0  0  0  0  0  0  0  0  0  0  0  0
   -2.2855    0.9040   -1.7908 H   0  0  0  0  0  0  0  0  0  0  0  0
   -3.1505   -0.6516   -1.7867 H   0  0  0  0  0  0  0  0  0  0  0  0
   -4.6903    1.2198   -2.9656 H   0  0  0  0  0  0  0  0  0  0  0  0
   -5.8399    1.8618   -1.9221 H   0  0  0  0  0  0  0  0  0  0  0  0
    2.4215   -3.7507   -0.5556 H   0  0  0  0  0  0  0  0  0  0  0  0
    3.2898   -2.1969   -0.5558 H   0  0  0  0  0  0  0  0  0  0  0  0
    2.4407   -2.7415    2.0822 H   0  0  0  0  0  0  0  0  0  0  0  0
    5.8908   -4.6697    2.4923 N   0  0  0  0  0  2  0  0  0  0  0  0
  1  2  1  0  0  0  0
  1 22  1  0  0  0  0
  1 23  1  0  0  0  0
  1 24  1  0  0  0  0
  2  3  1  0  0  0  0
  2 25  1  0  0  0  0
  2 26  1  0  0  0  0
  3  4  1  0  0  0  0
  4  9  2  0  0  0  0
  4  5  1  0  0  0  0
  5  6  2  0  0  0  0
  5 27  1  0  0  0  0
  6  7  1  0  0  0  0
  6 16  1  0  0  0  0
  7  8  2  0  0  0  0
  7 28  1  0  0  0  0
  8  9  1  0  0  0  0
  8 15  1  0  0  0  0
  9 10  1  0  0  0  0
 10 11  1  0  0  0  0
 11 12  1  0  0  0  0
 11 29  1  0  0  0  0
 11 30  1  0  0  0  0
 12 13  2  0  0  0  0
 12 14  1  0  0  0  0
 14 31  1  0  0  0  0
 14 32  1  0  0  0  0
 16 17  1  0  0  0  0
 16 33  1  0  0  0  0
 16 34  1  0  0  0  0
 17 18  1  0  0  0  0
 17 35  1  0  0  0  0
 18 21  1  0  0  0  0
 18 19  2  0  0  0  0
 19 36  1  0  0  0  0
 20 21  2  0  0  0  0
 20 36  1  0  0  0  0
M  END
$$$$
ZINC22364401
 OpenBabel01252620473D

 50 52  0  0  0  0  0  0  0  0999 V2000
   -2.5340    4.6540    3.5852 C   0  0  0  0  0  0  0  0  0  0  0  0
   -2.0671    3.7499    2.4426 C   0  0  0  0  0  0  0  0  0  0  0  0
   -3.1485    3.5343    1.5336 O   0  0  0  0  0  0  0  0  0  0  0  0
   -2.8993    2.7463    0.4536 C   0  0  0  0  0  0  0  0  0  0  0  0
   -1.6482    2.1920    0.2789 C   0  0  0  0  0  0  0  0  0  0  0  0
   -1.3933    1.3830   -0.8389 C   0  0  0  0  0  0  0  0  0  0  0  0
   -2.4161    1.1347   -1.7670 C   0  0  0  0  0  0  0  0  0  0  0  0
   -3.6624    1.6890   -1.5805 C   0  0  0  0  0  0  0  0  0  0  0  0
   -3.9110    2.4946   -0.4739 C   0  0  0  0  0  0  0  0  0  0  0  0
   -5.1421    3.0380   -0.2960 O   0  0  0  0  0  0  0  0  0  0  0  0
   -6.0866    2.2728    0.4552 C   0  0  0  0  0  0  0  0  0  0  0  0
   -7.3864    3.0298    0.5478 C   0  0  0  0  0  0  0  0  0  0  0  0
   -7.4929    4.1135    0.0242 O   0  0  0  0  0  0  0  0  0  0  0  0
   -8.4257    2.5003    1.2119 O   0  0  0  0  0  1  0  0  0  0  0  0
   -4.9273    1.3814   -2.7290 Cl  0  0  0  0  0  0  0  0  0  0  0  0
   -0.0679    0.7957   -1.0329 C   0  0  0  0  0  0  0  0  0  0  0  0
    1.0643    1.5524   -0.7976 C   0  0  0  0  0  0  0  0  0  0  0  0
    0.9903    3.0163   -0.6205 C   0  0  0  0  0  0  0  0  0  0  0  0
   -0.0756    3.5996   -0.6775 O   0  5  0  0  0  0  0  0  0  0  0  0
    2.1367    3.6883   -0.3882 N   0  0  0  0  0  0  0  0  0  0  0  0
    3.3185    3.0590   -0.3291 C   0  0  0  0  0  0  0  0  0  0  0  0
    4.3143    3.7243   -0.1218 O   0  0  0  0  0  0  0  0  0  0  0  0
    3.4617    1.7357   -0.4858 N   0  0  0  0  0  0  0  0  0  0  0  0
    2.4022    0.9338   -0.7184 C   0  0  0  0  0  0  0  0  0  0  0  0
    2.5452   -0.2660   -0.8585 O   0  0  0  0  0  0  0  0  0  0  0  0
    4.7437    1.1712   -0.4067 C   0  0  0  0  0  0  0  0  0  0  0  0
    5.1800    0.6031    0.7825 C   0  0  0  0  0  0  0  0  0  0  0  0
    6.4393    0.0417    0.8579 C   0  0  0  0  0  0  0  0  0  0  0  0
    7.2733    0.0568   -0.2506 C   0  0  0  0  0  0  0  0  0  0  0  0
    6.8401    0.6299   -1.4374 C   0  0  0  0  0  0  0  0  0  0  0  0
    5.5784    1.1857   -1.5158 C   0  0  0  0  0  0  0  0  0  0  0  0
    8.5154   -0.4906   -0.1740 O   0  0  0  0  0  0  0  0  0  0  0  0
    8.8958   -1.0633    1.0787 C   0  0  0  0  0  0  0  0  0  0  0  0
   -1.7016    4.8200    4.2849 H   0  0  0  0  0  0  0  0  0  0  0  0
   -3.3687    4.1727    4.1159 H   0  0  0  0  0  0  0  0  0  0  0  0
   -2.8673    5.6192    3.1762 H   0  0  0  0  0  0  0  0  0  0  0  0
   -1.2324    4.2312    1.9119 H   0  0  0  0  0  0  0  0  0  0  0  0
   -1.7338    2.7847    2.8515 H   0  0  0  0  0  0  0  0  0  0  0  0
   -0.8660    2.3832    0.9986 H   0  0  0  0  0  0  0  0  0  0  0  0
   -2.2257    0.5097   -2.6269 H   0  0  0  0  0  0  0  0  0  0  0  0
   -6.2587    1.3087   -0.0457 H   0  0  0  0  0  0  0  0  0  0  0  0
   -5.6929    2.0952    1.4668 H   0  0  0  0  0  0  0  0  0  0  0  0
    0.0277   -0.2483   -1.3661 H   0  0  0  0  0  0  0  0  0  0  0  0
    4.5327    0.5959    1.6470 H   0  0  0  0  0  0  0  0  0  0  0  0
    6.7767   -0.4052    1.7814 H   0  0  0  0  0  0  0  0  0  0  0  0
    7.4895    0.6411   -2.3002 H   0  0  0  0  0  0  0  0  0  0  0  0
    5.2413    1.6318   -2.4397 H   0  0  0  0  0  0  0  0  0  0  0  0
    9.9162   -1.4671    1.0025 H   0  0  0  0  0  0  0  0  0  0  0  0
    8.1990   -1.8740    1.3379 H   0  0  0  0  0  0  0  0  0  0  0  0
    8.8651   -0.2896    1.8600 H   0  0  0  0  0  0  0  0  0  0  0  0
  1  2  1  0  0  0  0
  1 34  1  0  0  0  0
  1 35  1  0  0  0  0
  1 36  1  0  0  0  0
  2  3  1  0  0  0  0
  2 37  1  0  0  0  0
  2 38  1  0  0  0  0
  3  4  1  0  0  0  0
  4  9  2  0  0  0  0
  4  5  1  0  0  0  0
  5  6  2  0  0  0  0
  5 39  1  0  0  0  0
  6  7  1  0  0  0  0
  6 16  1  0  0  0  0
  7  8  2  0  0  0  0
  7 40  1  0  0  0  0
  8  9  1  0  0  0  0
  8 15  1  0  0  0  0
  9 10  1  0  0  0  0
 10 11  1  0  0  0  0
 11 12  1  0  0  0  0
 11 41  1  0  0  0  0
 11 42  1  0  0  0  0
 12 13  2  0  0  0  0
 12 14  1  0  0  0  0
 16 17  2  0  0  0  0
 16 43  1  0  0  0  0
 17 24  1  0  0  0  0
 17 18  1  0  0  0  0
 18 19  1  0  0  0  0
 18 20  2  0  0  0  0
 20 21  1  0  0  0  0
 21 22  2  0  0  0  0
 21 23  1  0  0  0  0
 23 24  1  0  0  0  0
 23 26  1  0  0  0  0
 24 25  2  0  0  0  0
 26 31  2  0  0  0  0
 26 27  1  0  0  0  0
 27 28  2  0  0  0  0
 27 44  1  0  0  0  0
 28 29  1  0  0  0  0
 28 45  1  0  0  0  0
 29 30  2  0  0  0  0
 29 32  1  0  0  0  0
 30 31  1  0  0  0  0
 30 46  1  0  0  0  0
 31 47  1  0  0  0  0
 32 33  1  0  0  0  0
 33 48  1  0  0  0  0
 33 49  1  0  0  0  0
 33 50  1  0  0  0  0
M  CHG  1  19  -1
M  END
$$$$
ZINC36391347
 OpenBabel01252620473D

 46 48  0  0  1  0  0  0  0  0999 V2000
    0.4409    1.8605    0.0731 C   0  0  0  0  0  0  0  0  0  0  0  0
    0.6428    0.0579    0.0927 S   0  0  0  0  0  0  0  0  0  0  0  0
    1.5927   -0.3175    1.0806 O   0  0  0  0  0  0  0  0  0  0  0  0
   -0.6267   -0.5774    0.0299 O   0  0  0  0  0  0  0  0  0  0  0  0
    1.3687   -0.3048   -1.3509 N   0  0  0  0  0  2  0  0  0  0  0  0
    1.6708   -1.6210   -1.6634 C   0  0  0  0  0  0  0  0  0  0  0  0
    2.2460   -2.0925   -2.7491 N   0  0  0  0  0  0  0  0  0  0  0  0
    2.4668   -3.3870   -2.8964 C   0  0  0  0  0  0  0  0  0  0  0  0
    2.0757   -4.1977   -1.8842 C   0  0  0  0  0  0  0  0  0  0  0  0
    1.3977   -3.0035   -0.7433 S   0  0  0  0  0  0  0  0  0  0  0  0
    3.1243   -3.9369   -4.1359 C   0  0  0  0  0  0  0  0  0  0  0  0
    2.3579   -3.4870   -5.3529 C   0  0  0  0  0  0  0  0  0  0  0  0
    1.3745   -2.7885   -5.2262 O   0  0  0  0  0  0  0  0  0  0  0  0
    2.7652   -3.8608   -6.5821 N   0  0  0  0  0  0  0  0  0  0  0  0
    2.0200   -3.4234   -7.7652 C   0  0  1  0  0  0  0  0  0  0  0  0
    2.5025   -2.0335   -8.1865 C   0  0  0  0  0  0  0  0  0  0  0  0
    1.6975   -1.5649   -9.4026 C   0  0  0  0  0  0  0  0  0  0  0  0
    1.7972   -2.5834  -10.4568 N   0  0  0  0  0  0  0  0  0  0  0  0
    1.4437   -3.9723  -10.1329 C   0  0  0  0  0  0  0  0  0  0  0  0
    2.2516   -4.4139   -8.9086 C   0  0  0  0  0  0  0  0  0  0  0  0
    2.2047   -2.2500  -11.6975 C   0  0  0  0  0  0  0  0  0  0  0  0
    2.4292   -1.0867  -11.9717 O   0  0  0  0  0  0  0  0  0  0  0  0
    2.3782   -3.2953  -12.7219 C   0  0  0  0  0  0  0  0  0  0  0  0
    1.4950   -4.4420  -12.9800 C   0  0  0  0  0  0  0  0  0  0  0  0
    2.0517   -5.1143  -13.9991 C   0  0  0  0  0  0  0  0  0  0  0  0
    3.1768   -4.4875  -14.3768 O   0  0  0  0  0  0  0  0  0  0  0  0
    3.3886   -3.3977  -13.6327 C   0  0  0  0  0  0  0  0  0  0  0  0
    1.4183    2.3346   -0.0171 H   0  0  0  0  0  0  0  0  0  0  0  0
   -0.1816    2.1472   -0.7745 H   0  0  0  0  0  0  0  0  0  0  0  0
   -0.0352    2.1829    0.9991 H   0  0  0  0  0  0  0  0  0  0  0  0
    2.1553   -5.2708   -1.7914 H   0  0  0  0  0  0  0  0  0  0  0  0
    4.1493   -3.5711   -4.1963 H   0  0  0  0  0  0  0  0  0  0  0  0
    3.1293   -5.0260   -4.0918 H   0  0  0  0  0  0  0  0  0  0  0  0
    3.5516   -4.4195   -6.6834 H   0  0  0  0  0  0  0  0  0  0  0  0
    0.9565   -3.3826   -7.5299 H   0  0  0  0  0  0  0  0  0  0  0  0
    2.3588   -1.3335   -7.3634 H   0  0  0  0  0  0  0  0  0  0  0  0
    3.5602   -2.0787   -8.4458 H   0  0  0  0  0  0  0  0  0  0  0  0
    0.6530   -1.4321   -9.1204 H   0  0  0  0  0  0  0  0  0  0  0  0
    2.1024   -0.6208   -9.7672 H   0  0  0  0  0  0  0  0  0  0  0  0
    0.3786   -4.0359   -9.9102 H   0  0  0  0  0  0  0  0  0  0  0  0
    1.6813   -4.6167  -10.9793 H   0  0  0  0  0  0  0  0  0  0  0  0
    3.3117   -4.4367   -9.1611 H   0  0  0  0  0  0  0  0  0  0  0  0
    1.9294   -5.4083   -8.5994 H   0  0  0  0  0  0  0  0  0  0  0  0
    0.5844   -4.6924  -12.4561 H   0  0  0  0  0  0  0  0  0  0  0  0
    1.6575   -6.0158  -14.4443 H   0  0  0  0  0  0  0  0  0  0  0  0
    4.2195   -2.7153  -13.7338 H   0  0  0  0  0  0  0  0  0  0  0  0
  1  2  1  0  0  0  0
  1 28  1  0  0  0  0
  1 29  1  0  0  0  0
  1 30  1  0  0  0  0
  2  3  2  0  0  0  0
  2  4  2  0  0  0  0
  2  5  1  0  0  0  0
  5  6  1  0  0  0  0
  6 10  1  0  0  0  0
  6  7  2  0  0  0  0
  7  8  1  0  0  0  0
  8  9  2  0  0  0  0
  8 11  1  0  0  0  0
  9 10  1  0  0  0  0
  9 31  1  0  0  0  0
 11 12  1  0  0  0  0
 11 32  1  0  0  0  0
 11 33  1  0  0  0  0
 12 13  2  0  0  0  0
 12 14  1  0  0  0  0
 14 15  1  0  0  0  0
 14 34  1  0  0  0  0
 15 20  1  0  0  0  0
 15 16  1  0  0  0  0
 15 35  1  1  0  0  0
 16 17  1  0  0  0  0
 16 36  1  0  0  0  0
 16 37  1  0  0  0  0
 17 18  1  0  0  0  0
 17 38  1  0  0  0  0
 17 39  1  0  0  0  0
 18 19  1  0  0  0  0
 18 21  1  0  0  0  0
 19 20  1  0  0  0  0
 19 40  1  0  0  0  0
 19 41  1  0  0  0  0
 20 42  1  0  0  0  0
 20 43  1  0  0  0  0
 21 22  2  0  0  0  0
 21 23  1  0  0  0  0
 23 27  2  0  0  0  0
 23 24  1  0  0  0  0
 24 25  2  0  0  0  0
 24 44  1  0  0  0  0
 25 26  1  0  0  0  0
 25 45  1  0  0  0  0
 26 27  1  0  0  0  0
 27 46  1  0  0  0  0
M  END
$$$$
ZINC63136430
 OpenBabel01252620473D

 41 42  0  0  1  0  0  0  0  0999 V2000
   -0.0187    1.5258    0.0104 C   0  0  0  0  0  0  0  0  0  0  0  0
    0.0021   -0.0041    0.0020 C   0  0  2  0  0  0  0  0  0  0  0  0
   -1.4333   -0.5336    0.0129 C   0  0  0  0  0  0  0  0  0  0  0  0
   -1.4126   -2.0635    0.0045 C   0  0  0  0  0  0  0  0  0  0  0  0
   -0.6726   -2.5703    1.2440 C   0  0  2  0  0  0  0  0  0  0  0  0
    0.7628   -2.0407    1.2331 C   0  0  0  0  0  0  0  0  0  0  0  0
    0.7421   -0.5109    1.2415 C   0  0  0  0  0  0  0  0  0  0  0  0
   -0.6521   -4.0772    1.2357 C   0  0  0  0  0  0  0  0  0  0  0  0
   -0.1247   -4.6746    0.3130 O   0  0  0  0  0  0  0  0  0  0  0  0
   -1.1630   -4.6988    2.1517 O   0  0  0  0  0  1  0  0  0  0  0  0
   -1.3583   -2.0979    2.4493 N   0  0  0  0  0  0  0  0  0  0  0  0
   -0.8818   -2.4237    3.6672 C   0  0  0  0  0  0  0  0  0  0  0  0
    0.1172   -3.1098    3.7655 O   0  0  0  0  0  0  0  0  0  0  0  0
   -1.5126   -1.9891    4.7761 N   0  0  0  0  0  0  0  0  0  0  0  0
   -0.9947   -2.3433    6.0999 C   0  0  0  0  0  0  0  0  0  0  0  0
   -1.8884   -1.7281    7.1786 C   0  0  0  0  0  0  0  0  0  0  0  0
   -1.3556   -2.0924    8.5403 C   0  0  0  0  0  0  0  0  0  0  0  0
   -0.4912   -1.4403    9.2770 N   0  0  0  0  0  0  0  0  0  0  0  0
   -0.1196   -1.8904   10.4589 C   0  0  0  0  0  0  0  0  0  0  0  0
   -0.6737   -3.0580   10.8746 C   0  0  0  0  0  0  0  0  0  0  0  0
   -1.7327   -3.4324    9.4865 S   0  0  0  0  0  0  0  0  0  0  0  0
    1.0039    1.9031    0.0027 H   0  0  0  0  0  0  0  0  0  0  0  0
   -0.5459    1.8868   -0.8726 H   0  0  0  0  0  0  0  0  0  0  0  0
   -0.5289    1.8773    0.9072 H   0  0  0  0  0  0  0  0  0  0  0  0
    0.5123   -0.3556   -0.8948 H   0  0  0  0  0  0  0  0  0  0  0  0
   -1.9435   -0.1821    0.9097 H   0  0  0  0  0  0  0  0  0  0  0  0
   -1.9605   -0.1726   -0.8702 H   0  0  0  0  0  0  0  0  0  0  0  0
   -2.4352   -2.4408    0.0122 H   0  0  0  0  0  0  0  0  0  0  0  0
   -0.9024   -2.4150   -0.8923 H   0  0  0  0  0  0  0  0  0  0  0  0
    1.2900   -2.4018    2.1162 H   0  0  0  0  0  0  0  0  0  0  0  0
    1.2730   -2.3923    0.3363 H   0  0  0  0  0  0  0  0  0  0  0  0
    1.7647   -0.1336    1.2338 H   0  0  0  0  0  0  0  0  0  0  0  0
    0.2319   -0.1594    2.1383 H   0  0  0  0  0  0  0  0  0  0  0  0
   -2.1552   -1.5505    2.3709 H   0  0  0  0  0  0  0  0  0  0  0  0
   -2.3096   -1.4417    4.6976 H   0  0  0  0  0  0  0  0  0  0  0  0
   -0.9875   -3.4278    6.2090 H   0  0  0  0  0  0  0  0  0  0  0  0
    0.0203   -1.9606    6.2072 H   0  0  0  0  0  0  0  0  0  0  0  0
   -1.8956   -0.6436    7.0695 H   0  0  0  0  0  0  0  0  0  0  0  0
   -2.9034   -2.1107    7.0712 H   0  0  0  0  0  0  0  0  0  0  0  0
    0.5932   -1.3550   11.0685 H   0  0  0  0  0  0  0  0  0  0  0  0
   -0.5195   -3.6065   11.7921 H   0  0  0  0  0  0  0  0  0  0  0  0
  1  2  1  0  0  0  0
  1 22  1  0  0  0  0
  1 23  1  0  0  0  0
  1 24  1  0  0  0  0
  2  7  1  0  0  0  0
  2  3  1  0  0  0  0
  2 25  1  6  0  0  0
  3  4  1  0  0  0  0
  3 26  1  0  0  0  0
  3 27  1  0  0  0  0
  4  5  1  0  0  0  0
  4 28  1  0  0  0  0
  4 29  1  0  0  0  0
  5  6  1  0  0  0  0
  5  8  1  6  0  0  0
  5 11  1  0  0  0  0
  6  7  1  0  0  0  0
  6 30  1  0  0  0  0
  6 31  1  0  0  0  0
  7 32  1  0  0  0  0
  7 33  1  0  0  0  0
  8  9  2  0  0  0  0
  8 10  1  0  0  0  0
 11 12  1  0  0  0  0
 11 34  1  0  0  0  0
 12 13  2  0  0  0  0
 12 14  1  0  0  0  0
 14 15  1  0  0  0  0
 14 35  1  0  0  0  0
 15 16  1  0  0  0  0
 15 36  1  0  0  0  0
 15 37  1  0  0  0  0
 16 17  1  0  0  0  0
 16 38  1  0  0  0  0
 16 39  1  0  0  0  0
 17 21  1  0  0  0  0
 17 18  2  0  0  0  0
 18 19  1  0  0  0  0
 19 20  2  0  0  0  0
 19 40  1  0  0  0  0
 20 21  1  0  0  0  0
 20 41  1  0  0  0  0
M  END
$$$$
ZINC17088829
 OpenBabel01252620473D

 52 55  0  0  1  0  0  0  0  0999 V2000
    0.0021   -0.0041    0.0020 C   0  0  0  0  0  0  0  0  0  0  0  0
    1.2951   -0.4029   -0.0125 C   0  0  0  0  0  0  0  0  0  0  0  0
    2.0669    0.7041   -0.0139 N   0  0  0  0  0  0  0  0  0  0  0  0
    1.2203    1.8201    0.0002 N   0  0  0  0  0  0  0  0  0  0  0  0
   -0.0169    1.3945    0.0097 C   0  0  0  0  0  0  0  0  0  0  0  0
   -1.2495    2.2614    0.0205 C   0  0  0  0  0  0  0  0  0  0  0  0
   -1.6244    2.5225    1.3428 F   0  0  0  0  0  0  0  0  0  0  0  0
   -0.9770    3.4676   -0.6338 F   0  0  0  0  0  0  0  0  0  0  0  0
   -2.2914    1.5990   -0.6374 F   0  0  0  0  0  0  0  0  0  0  0  0
    3.5316    0.7335   -0.0277 C   0  0  0  0  0  0  0  0  0  0  0  0
    4.0277    0.7515   -1.4749 C   0  0  0  0  0  0  0  0  0  0  0  0
    5.5573    0.7822   -1.4894 C   0  0  0  0  0  0  0  0  0  0  0  0
    6.0323    0.7994   -2.8751 N   0  0  0  0  0  0  0  0  0  0  0  0
    7.3547    0.8274   -3.1339 C   0  0  0  0  0  0  0  0  0  0  0  0
    8.1514    0.8382   -2.2196 O   0  0  0  0  0  0  0  0  0  0  0  0
    7.8433    0.8451   -4.5594 C   0  0  1  0  0  0  0  0  0  0  0  0
    7.4924   -0.0490   -5.0746 H   0  0  0  0  0  0  0  0  0  0  0  0
    7.3000    2.0911   -5.2704 C   0  0  1  0  0  0  0  0  0  0  0  0
    6.2113    2.0653   -5.3172 H   0  0  0  0  0  0  0  0  0  0  0  0
    7.7825    3.3316   -4.5060 C   0  0  0  0  0  0  0  0  0  0  0  0
    9.3123    3.3690   -4.5048 C   0  0  0  0  0  0  0  0  0  0  0  0
    9.8561    2.1536   -5.2684 C   0  0  1  0  0  0  0  0  0  0  0  0
   10.9442    2.1875   -5.3242 H   0  0  0  0  0  0  0  0  0  0  0  0
    9.3733    0.8738   -4.5735 C   0  0  2  0  0  0  0  0  0  0  0  0
    9.7459    0.8747   -3.5491 H   0  0  0  0  0  0  0  0  0  0  0  0
    9.8917   -0.3435   -5.2949 C   0  0  0  0  0  0  0  0  0  0  0  0
    9.1171   -1.1510   -5.7508 O   0  0  0  0  0  0  0  0  0  0  0  0
    9.2436    2.1709   -6.6611 C   0  0  0  0  0  0  0  0  0  0  0  0
    7.8995    2.1289   -6.6683 C   0  0  0  0  0  0  0  0  0  0  0  0
    1.7853   -1.8279   -0.0240 C   0  0  0  0  0  0  0  0  0  0  0  0
    0.9410   -2.8593   -0.7752 C   0  0  0  0  0  0  0  0  0  0  0  0
    0.9700   -2.8617    0.7552 C   0  0  0  0  0  0  0  0  0  0  0  0
   -0.8625   -0.6513    0.0071 H   0  0  0  0  0  0  0  0  0  0  0  0
    3.8819    1.6278    0.4876 H   0  0  0  0  0  0  0  0  0  0  0  0
    3.9175   -0.1518    0.4777 H   0  0  0  0  0  0  0  0  0  0  0  0
    3.6773   -0.1428   -1.9903 H   0  0  0  0  0  0  0  0  0  0  0  0
    3.6417    1.6367   -1.9804 H   0  0  0  0  0  0  0  0  0  0  0  0
    5.9076    1.6765   -0.9741 H   0  0  0  0  0  0  0  0  0  0  0  0
    5.9433   -0.1030   -0.9840 H   0  0  0  0  0  0  0  0  0  0  0  0
    5.3951    0.7907   -3.6064 H   0  0  0  0  0  0  0  0  0  0  0  0
    7.3977    4.2290   -4.9904 H   0  0  0  0  0  0  0  0  0  0  0  0
    7.4197    3.2892   -3.4791 H   0  0  0  0  0  0  0  0  0  0  0  0
    9.6535    4.2842   -4.9886 H   0  0  0  0  0  0  0  0  0  0  0  0
    9.6753    3.3443   -3.4774 H   0  0  0  0  0  0  0  0  0  0  0  0
    9.8337    2.2059   -7.5649 H   0  0  0  0  0  0  0  0  0  0  0  0
    7.3008    2.1345   -7.5672 H   0  0  0  0  0  0  0  0  0  0  0  0
    2.8679   -1.9524   -0.0448 H   0  0  0  0  0  0  0  0  0  0  0  0
    0.0310   -2.5072   -1.2610 H   0  0  0  0  0  0  0  0  0  0  0  0
    1.4682   -3.6626   -1.2898 H   0  0  0  0  0  0  0  0  0  0  0  0
    1.5163   -3.6667    1.2469 H   0  0  0  0  0  0  0  0  0  0  0  0
    0.0793   -2.5112    1.2766 H   0  0  0  0  0  0  0  0  0  0  0  0
   11.2139   -0.5307   -5.4309 O   0  0  0  0  0  1  0  0  0  0  0  0
  1  5  1  0  0  0  0
  1  2  2  0  0  0  0
  1 33  1  0  0  0  0
  2  3  1  0  0  0  0
  2 30  1  0  0  0  0
  3  4  1  0  0  0  0
  3 10  1  0  0  0  0
  4  5  2  0  0  0  0
  5  6  1  0  0  0  0
  6  7  1  0  0  0  0
  6  8  1  0  0  0  0
  6  9  1  0  0  0  0
 10 11  1  0  0  0  0
 10 34  1  0  0  0  0
 10 35  1  0  0  0  0
 11 12  1  0  0  0  0
 11 36  1  0  0  0  0
 11 37  1  0  0  0  0
 12 13  1  0  0  0  0
 12 38  1  0  0  0  0
 12 39  1  0  0  0  0
 13 14  1  0  0  0  0
 13 40  1  0  0  0  0
 14 15  2  0  0  0  0
 14 16  1  0  0  0  0
 16 17  1  6  0  0  0
 16 24  1  0  0  0  0
 16 18  1  0  0  0  0
 18 19  1  6  0  0  0
 18 29  1  0  0  0  0
 18 20  1  0  0  0  0
 20 21  1  0  0  0  0
 20 41  1  0  0  0  0
 20 42  1  0  0  0  0
 21 22  1  0  0  0  0
 21 43  1  0  0  0  0
 21 44  1  0  0  0  0
 22 23  1  6  0  0  0
 22 24  1  0  0  0  0
 22 28  1  0  0  0  0
 24 25  1  1  0  0  0
 24 26  1  0  0  0  0
 26 27  2  0  0  0  0
 26 52  1  0  0  0  0
 28 29  2  0  0  0  0
 28 45  1  0  0  0  0
 29 46  1  0  0  0  0
 30 32  1  0  0  0  0
 30 31  1  0  0  0  0
 30 47  1  0  0  0  0
 31 32  1  0  0  0  0
 31 48  1  0  0  0  0
 31 49  1  0  0  0  0
 32 50  1  0  0  0  0
 32 51  1  0  0  0  0
M  END
$$$$
ZINC44394644
 OpenBabel01252620473D

 43 45  0  0  0  0  0  0  0  0999 V2000
    8.0448   -4.8761    3.4573 C   0  0  0  0  0  0  0  0  0  0  0  0
    7.4307   -3.6390    2.8546 C   0  0  0  0  0  0  0  0  0  0  0  0
    7.9899   -2.3794    3.1264 C   0  0  0  0  0  0  0  0  0  0  0  0
    7.4098   -1.2779    2.5642 C   0  0  0  0  0  0  0  0  0  0  0  0
    6.2797   -1.4762    1.7418 C   0  0  0  0  0  0  0  0  0  0  0  0
    5.7252   -0.5245    1.2157 O   0  0  0  0  0  0  0  0  0  0  0  0
    5.8202   -2.7264    1.5434 N   0  0  0  0  0  0  0  0  0  0  0  0
    6.3871   -3.7458    2.0799 N   0  0  0  0  0  0  0  0  0  0  0  0
    4.6472   -2.9289    0.6894 C   0  0  0  0  0  0  0  0  0  0  0  0
    5.0925   -3.1302   -0.7362 C   0  0  0  0  0  0  0  0  0  0  0  0
    6.2734   -3.1067   -1.0117 O   0  0  0  0  0  0  0  0  0  0  0  0
    4.1784   -3.3361   -1.7050 N   0  0  0  0  0  0  0  0  0  0  0  0
    4.5835   -3.4264   -3.0413 C   0  0  0  0  0  0  0  0  0  0  0  0
    3.7736   -2.9205   -4.0496 C   0  0  0  0  0  0  0  0  0  0  0  0
    4.1762   -3.0112   -5.3676 C   0  0  0  0  0  0  0  0  0  0  0  0
    5.3844   -3.6050   -5.6837 C   0  0  0  0  0  0  0  0  0  0  0  0
    6.1930   -4.1101   -4.6820 C   0  0  0  0  0  0  0  0  0  0  0  0
    5.7989   -4.0170   -3.3616 C   0  0  0  0  0  0  0  0  0  0  0  0
    5.8945   -3.7187   -7.3664 S   0  0  0  0  0  0  0  0  0  0  0  0
    6.8087   -4.8040   -7.4412 O   0  0  0  0  0  0  0  0  0  0  0  0
    4.7128   -3.6624   -8.1536 O   0  0  0  0  0  0  0  0  0  0  0  0
    6.7578   -2.3480   -7.7100 N   0  0  0  0  0  2  0  0  0  0  0  0
    7.2884   -2.1633   -8.9749 C   0  0  0  0  0  0  0  0  0  0  0  0
    7.0915   -3.0905   -9.9006 N   0  0  0  0  0  0  0  0  0  0  0  0
    7.5845   -2.9446  -11.1194 C   0  0  0  0  0  0  0  0  0  0  0  0
    8.3139   -1.8055  -11.4218 C   0  0  0  0  0  0  0  0  0  0  0  0
    8.5009   -0.8556  -10.4299 C   0  0  0  0  0  0  0  0  0  0  0  0
    7.9766   -1.0608   -9.2329 N   0  0  0  0  0  0  0  0  0  0  0  0
    7.4850   -5.7539    3.1345 H   0  0  0  0  0  0  0  0  0  0  0  0
    9.0804   -4.9647    3.1290 H   0  0  0  0  0  0  0  0  0  0  0  0
    8.0133   -4.8046    4.5445 H   0  0  0  0  0  0  0  0  0  0  0  0
    8.8564   -2.2842    3.7640 H   0  0  0  0  0  0  0  0  0  0  0  0
    7.8025   -0.2879    2.7433 H   0  0  0  0  0  0  0  0  0  0  0  0
    4.0997   -3.8090    1.0267 H   0  0  0  0  0  0  0  0  0  0  0  0
    3.9998   -2.0539    0.7478 H   0  0  0  0  0  0  0  0  0  0  0  0
    3.2398   -3.4218   -1.4759 H   0  0  0  0  0  0  0  0  0  0  0  0
    2.8297   -2.4570   -3.8034 H   0  0  0  0  0  0  0  0  0  0  0  0
    3.5467   -2.6183   -6.1522 H   0  0  0  0  0  0  0  0  0  0  0  0
    7.1358   -4.5736   -4.9322 H   0  0  0  0  0  0  0  0  0  0  0  0
    6.4331   -4.4071   -2.5793 H   0  0  0  0  0  0  0  0  0  0  0  0
    7.4210   -3.7041  -11.8696 H   0  0  0  0  0  0  0  0  0  0  0  0
    8.7280   -1.6613  -12.4088 H   0  0  0  0  0  0  0  0  0  0  0  0
    9.0646    0.0430  -10.6329 H   0  0  0  0  0  0  0  0  0  0  0  0
  1  2  1  0  0  0  0
  1 29  1  0  0  0  0
  1 30  1  0  0  0  0
  1 31  1  0  0  0  0
  2  8  2  0  0  0  0
  2  3  1  0  0  0  0
  3  4  2  0  0  0  0
  3 32  1  0  0  0  0
  4  5  1  0  0  0  0
  4 33  1  0  0  0  0
  5  6  2  0  0  0  0
  5  7  1  0  0  0  0
  7  8  1  0  0  0  0
  7  9  1  0  0  0  0
  9 10  1  0  0  0  0
  9 34  1  0  0  0  0
  9 35  1  0  0  0  0
 10 11  2  0  0  0  0
 10 12  1  0  0  0  0
 12 13  1  0  0  0  0
 12 36  1  0  0  0  0
 13 18  2  0  0  0  0
 13 14  1  0  0  0  0
 14 15  2  0  0  0  0
 14 37  1  0  0  0  0
 15 16  1  0  0  0  0
 15 38  1  0  0  0  0
 16 17  2  0  0  0  0
 16 19  1  0  0  0  0
 17 18  1  0  0  0  0
 17 39  1  0  0  0  0
 18 40  1  0  0  0  0
 19 20  2  0  0  0  0
 19 21  2  0  0  0  0
 19 22  1  0  0  0  0
 22 23  1  0  0  0  0
 23 28  2  0  0  0  0
 23 24  1  0  0  0  0
 24 25  2  0  0  0  0
 25 26  1  0  0  0  0
 25 41  1  0  0  0  0
 26 27  2  0  0  0  0
 26 42  1  0  0  0  0
 27 28  1  0  0  0  0
 27 43  1  0  0  0  0
M  END
$$$$
ZINC49062570
 OpenBabel01252620473D

 32 32  0  0  0  0  0  0  0  0999 V2000
   -0.0173    1.4248    0.0099 C   0  0  0  0  0  0  0  0  0  0  0  0
    0.0021   -0.0041    0.0020 O   0  0  0  0  0  0  0  0  0  0  0  0
   -1.1855   -0.6297    0.0100 C   0  0  0  0  0  0  0  0  0  0  0  0
   -2.2076    0.0145    0.0232 O   0  0  0  0  0  0  0  0  0  0  0  0
   -1.2439   -2.1355    0.0025 C   0  0  0  0  0  0  0  0  0  0  0  0
   -2.7051   -2.5893    0.0140 C   0  0  0  0  0  0  0  0  0  0  0  0
   -2.7644   -4.1181    0.0063 C   0  0  0  0  0  0  0  0  0  0  0  0
   -4.4968   -4.6560    0.0200 S   0  0  0  0  0  0  0  0  0  0  0  0
   -5.1022   -4.3252    1.2623 O   0  0  0  0  0  0  0  0  0  0  0  0
   -5.1258   -4.3119   -1.2069 O   0  0  0  0  0  0  0  0  0  0  0  0
   -4.4287   -6.3106    0.0105 N   0  0  0  0  0  2  0  0  0  0  0  0
   -5.5960   -7.0503    0.0176 C   0  0  0  0  0  0  0  0  0  0  0  0
   -5.7311   -8.4324    0.0171 C   0  0  0  0  0  0  0  0  0  0  0  0
   -7.0820   -8.9486    0.0258 C   0  0  0  0  0  0  0  0  0  0  0  0
   -8.0618   -8.0276    0.0334 C   0  0  0  0  0  0  0  0  0  0  0  0
   -7.1755   -6.4848    0.0363 S   0  0  0  0  0  0  0  0  0  0  0  0
   -4.5667   -9.3205    0.0078 C   0  0  0  0  0  0  0  0  0  0  0  0
   -3.4434   -8.8513    0.0003 O   0  0  0  0  0  0  0  0  0  0  0  0
   -4.7388  -10.6572    0.0077 N   0  0  0  0  0  0  0  0  0  0  0  0
    1.0053    1.8021    0.0021 H   0  0  0  0  0  0  0  0  0  0  0  0
   -0.5445    1.7859   -0.8732 H   0  0  0  0  0  0  0  0  0  0  0  0
   -0.5275    1.7763    0.9067 H   0  0  0  0  0  0  0  0  0  0  0  0
   -0.7531   -2.5137   -0.8943 H   0  0  0  0  0  0  0  0  0  0  0  0
   -0.7361   -2.5233    0.8856 H   0  0  0  0  0  0  0  0  0  0  0  0
   -3.1959   -2.2111    0.9107 H   0  0  0  0  0  0  0  0  0  0  0  0
   -3.2129   -2.2015   -0.8691 H   0  0  0  0  0  0  0  0  0  0  0  0
   -2.2736   -4.4963   -0.8904 H   0  0  0  0  0  0  0  0  0  0  0  0
   -2.2566   -4.5058    0.8894 H   0  0  0  0  0  0  0  0  0  0  0  0
   -7.2909  -10.0082    0.0258 H   0  0  0  0  0  0  0  0  0  0  0  0
   -9.1301   -8.1863    0.0405 H   0  0  0  0  0  0  0  0  0  0  0  0
   -5.6338  -11.0310    0.0137 H   0  0  0  0  0  0  0  0  0  0  0  0
   -3.9675  -11.2455    0.0015 H   0  0  0  0  0  0  0  0  0  0  0  0
  1  2  1  0  0  0  0
  1 20  1  0  0  0  0
  1 21  1  0  0  0  0
  1 22  1  0  0  0  0
  2  3  1  0  0  0  0
  3  4  2  0  0  0  0
  3  5  1  0  0  0  0
  5  6  1  0  0  0  0
  5 23  1  0  0  0  0
  5 24  1  0  0  0  0
  6  7  1  0  0  0  0
  6 25  1  0  0  0  0
  6 26  1  0  0  0  0
  7  8  1  0  0  0  0
  7 27  1  0  0  0  0
  7 28  1  0  0  0  0
  8  9  2  0  0  0  0
  8 10  2  0  0  0  0
  8 11  1  0  0  0  0
 11 12  1  0  0  0  0
 12 16  1  0  0  0  0
 12 13  2  0  0  0  0
 13 14  1  0  0  0  0
 13 17  1  0  0  0  0
 14 15  2  0  0  0  0
 14 29  1  0  0  0  0
 15 16  1  0  0  0  0
 15 30  1  0  0  0  0
 17 18  2  0  0  0  0
 17 19  1  0  0  0  0
 19 31  1  0  0  0  0
 19 32  1  0  0  0  0
M  END
$$$$
ZINC35531145
 OpenBabel01252620473D

 42 43  0  0  1  0  0  0  0  0999 V2000
   -0.0184    1.5028    0.0103 C   0  0  0  0  0  0  0  0  0  0  0  0
    0.0021   -0.0041    0.0020 C   0  0  0  0  0  0  0  0  0  0  0  0
    0.0057   -0.6861   -1.2019 C   0  0  0  0  0  0  0  0  0  0  0  0
    0.0244   -2.0653   -1.2168 C   0  0  0  0  0  0  0  0  0  0  0  0
    0.0401   -2.7732   -0.0132 C   0  0  0  0  0  0  0  0  0  0  0  0
    0.0368   -2.0785    1.1980 C   0  0  0  0  0  0  0  0  0  0  0  0
    0.0229   -0.6991    1.1983 C   0  0  0  0  0  0  0  0  0  0  0  0
    0.0582   -4.1424   -0.0208 N   0  0  0  0  0  0  0  0  0  0  0  0
    0.8748   -4.7923    0.7751 C   0  0  0  0  0  0  0  0  0  0  0  0
    1.7734   -4.2717    1.6824 N   0  0  0  0  0  0  0  0  0  0  0  0
    2.5475   -5.0366    2.4330 C   0  0  0  0  0  0  0  0  0  0  0  0
    3.3352   -4.5717    3.2291 O   0  0  0  0  0  0  0  0  0  0  0  0
    2.3878   -6.5356    2.2360 C   0  0  2  0  0  0  0  0  0  0  0  0
    3.3121   -6.9874    1.8756 H   0  0  0  0  0  0  0  0  0  0  0  0
    1.0778   -6.5593    0.9431 S   0  0  0  0  0  0  0  0  0  0  0  0
    1.9065   -7.2155    3.5193 C   0  0  0  0  0  0  0  0  0  0  0  0
    1.8797   -8.7086    3.3171 C   0  0  0  0  0  0  0  0  0  0  0  0
    2.2128   -9.1824    2.2515 O   0  0  0  0  0  0  0  0  0  0  0  0
    1.4856   -9.5176    4.3205 N   0  0  0  0  0  0  0  0  0  0  0  0
    1.4596  -10.9691    4.1240 C   0  0  0  0  0  0  0  0  0  0  0  0
    0.9783  -11.6490    5.4073 C   0  0  0  0  0  0  0  0  0  0  0  0
    0.9511  -13.1649    5.2021 C   0  0  0  0  0  0  0  0  0  0  0  0
    0.4770  -13.8346    6.4661 C   0  0  0  0  0  0  0  0  0  0  0  0
    0.1877  -13.1617    7.4409 O   0  0  0  0  0  0  0  0  0  0  0  0
    0.3828  -15.0492    6.5141 O   0  0  0  0  0  1  0  0  0  0  0  0
    1.0042    1.8801    0.0026 H   0  0  0  0  0  0  0  0  0  0  0  0
   -0.5455    1.8639   -0.8728 H   0  0  0  0  0  0  0  0  0  0  0  0
   -0.5286    1.8543    0.9071 H   0  0  0  0  0  0  0  0  0  0  0  0
   -0.0064   -0.1374   -2.1320 H   0  0  0  0  0  0  0  0  0  0  0  0
    0.0265   -2.5965   -2.1571 H   0  0  0  0  0  0  0  0  0  0  0  0
    0.0485   -2.6198    2.1325 H   0  0  0  0  0  0  0  0  0  0  0  0
    0.0244   -0.1604    2.1344 H   0  0  0  0  0  0  0  0  0  0  0  0
    1.8402   -3.3083    1.7730 H   0  0  0  0  0  0  0  0  0  0  0  0
    2.5856   -6.9716    4.3363 H   0  0  0  0  0  0  0  0  0  0  0  0
    0.9040   -6.8638    3.7628 H   0  0  0  0  0  0  0  0  0  0  0  0
    1.2193   -9.1387    5.1728 H   0  0  0  0  0  0  0  0  0  0  0  0
    0.7805  -11.2130    3.3070 H   0  0  0  0  0  0  0  0  0  0  0  0
    2.4621  -11.3208    3.8805 H   0  0  0  0  0  0  0  0  0  0  0  0
    1.6573  -11.4051    6.2244 H   0  0  0  0  0  0  0  0  0  0  0  0
   -0.0243  -11.2972    5.6509 H   0  0  0  0  0  0  0  0  0  0  0  0
    0.2720  -13.4088    4.3851 H   0  0  0  0  0  0  0  0  0  0  0  0
    1.9536  -13.5166    4.9586 H   0  0  0  0  0  0  0  0  0  0  0  0
  1  2  1  0  0  0  0
  1 26  1  0  0  0  0
  1 27  1  0  0  0  0
  1 28  1  0  0  0  0
  2  7  2  0  0  0  0
  2  3  1  0  0  0  0
  3  4  2  0  0  0  0
  3 29  1  0  0  0  0
  4  5  1  0  0  0  0
  4 30  1  0  0  0  0
  5  6  2  0  0  0  0
  5  8  1  0  0  0  0
  6  7  1  0  0  0  0
  6 31  1  0  0  0  0
  7 32  1  0  0  0  0
  8  9  2  0  0  0  0
  9 15  1  0  0  0  0
  9 10  1  0  0  0  0
 10 11  1  0  0  0  0
 10 33  1  0  0  0  0
 11 12  2  0  0  0  0
 11 13  1  0  0  0  0
 13 14  1  6  0  0  0
 13 15  1  0  0  0  0
 13 16  1  0  0  0  0
 16 17  1  0  0  0  0
 16 34  1  0  0  0  0
 16 35  1  0  0  0  0
 17 18  2  0  0  0  0
 17 19  1  0  0  0  0
 19 20  1  0  0  0  0
 19 36  1  0  0  0  0
 20 21  1  0  0  0  0
 20 37  1  0  0  0  0
 20 38  1  0  0  0  0
 21 22  1  0  0  0  0
 21 39  1  0  0  0  0
 21 40  1  0  0  0  0
 22 23  1  0  0  0  0
 22 41  1  0  0  0  0
 22 42  1  0  0  0  0
 23 24  2  0  0  0  0
 23 25  1  0  0  0  0
M  END
$$$$
ZINC09970256
 OpenBabel01252620473D

 24 24  0  0  1  0  0  0  0  0999 V2000
    6.2054    3.3443   -1.0721 C   0  0  0  0  0  0  0  0  0  0  0  0
    5.8297    2.0631   -0.3249 C   0  0  0  0  0  0  0  0  0  0  0  0
    6.0949    2.2263    1.0746 O   0  0  0  0  0  0  0  0  0  0  0  0
    4.8409    2.0715    1.7693 C   0  0  0  0  0  0  0  0  0  0  0  0
    3.7916    2.3613    0.6671 C   0  0  1  0  0  0  0  0  0  0  0  0
    3.6381    3.4337    0.5467 H   0  0  0  0  0  0  0  0  0  0  0  0
    4.4289    1.7936   -0.5024 O   0  0  0  0  0  0  0  0  0  0  0  0
    2.4699    1.6523    0.9691 C   0  0  0  0  0  0  0  0  0  0  0  0
    1.4924    2.0330   -0.0013 O   0  0  0  0  0  0  0  0  0  0  0  0
   -0.0180    1.4758    0.0102 P   0  0  0  0  0  0  0  0  0  0  0  0
    0.0021   -0.0041    0.0020 O   0  0  0  0  0  0  0  0  0  0  0  0
    6.6486    0.8913   -0.8701 C   0  0  0  0  0  0  0  0  0  0  0  0
    7.2708    3.5383   -0.9478 H   0  0  0  0  0  0  0  0  0  0  0  0
    5.9787    3.2267   -2.1317 H   0  0  0  0  0  0  0  0  0  0  0  0
    5.6344    4.1807   -0.6690 H   0  0  0  0  0  0  0  0  0  0  0  0
    4.7578    2.7952    2.5801 H   0  0  0  0  0  0  0  0  0  0  0  0
    4.7325    1.0546    2.1465 H   0  0  0  0  0  0  0  0  0  0  0  0
    2.1244    1.9357    1.9633 H   0  0  0  0  0  0  0  0  0  0  0  0
    2.6193    0.5733    0.9303 H   0  0  0  0  0  0  0  0  0  0  0  0
    6.3927   -0.0163   -0.3234 H   0  0  0  0  0  0  0  0  0  0  0  0
    6.4256    0.7533   -1.9280 H   0  0  0  0  0  0  0  0  0  0  0  0
    7.7109    1.1021   -0.7472 H   0  0  0  0  0  0  0  0  0  0  0  0
   -0.7967    2.0091   -1.2942 O   0  0  0  0  0  1  0  0  0  0  0  0
   -0.7716    1.9950    1.3348 O   0  0  0  0  0  1  0  0  0  0  0  0
  1  2  1  0  0  0  0
  1 13  1  0  0  0  0
  1 14  1  0  0  0  0
  1 15  1  0  0  0  0
  2  7  1  0  0  0  0
  2  3  1  0  0  0  0
  2 12  1  0  0  0  0
  3  4  1  0  0  0  0
  4  5  1  0  0  0  0
  4 16  1  0  0  0  0
  4 17  1  0  0  0  0
  5  6  1  6  0  0  0
  5  7  1  0  0  0  0
  5  8  1  0  0  0  0
  8  9  1  0  0  0  0
  8 18  1  0  0  0  0
  8 19  1  0  0  0  0
  9 10  1  0  0  0  0
 10 11  2  0  0  0  0
 10 23  1  0  0  0  0
 10 24  1  0  0  0  0
 12 20  1  0  0  0  0
 12 21  1  0  0  0  0
 12 22  1  0  0  0  0
M  END
$$$$
ZINC19477507
 OpenBabel01252620473D

 29 30  0  0  1  0  0  0  0  0999 V2000
    1.8947    7.2103    1.5389 C   0  0  0  0  0  0  0  0  0  0  0  0
    1.4322    5.9928    0.9507 O   0  0  0  0  0  0  0  0  0  0  0  0
    2.0031    4.8158    1.5260 C   0  0  1  0  0  0  0  0  0  0  0  0
    2.2502    5.1725    2.5368 H   0  0  0  0  0  0  0  0  0  0  0  0
    1.0172    3.6208    1.4411 C   0  0  0  0  0  0  0  0  0  0  0  0
    1.2350    3.0943    0.0069 C   0  0  1  0  0  0  0  0  0  0  0  0
    0.4829    3.4713   -0.7018 H   0  0  0  0  0  0  0  0  0  0  0  0
    2.5656    3.5452   -0.4263 N   0  0  0  0  0  0  0  0  0  0  0  0
    3.1904    4.3005    0.6749 C   0  0  0  0  0  0  0  0  0  0  0  0
    3.1224    3.3066   -1.6302 C   0  0  0  0  0  0  0  0  0  0  0  0
    2.5122    2.6673   -2.4670 O   0  0  0  0  0  0  0  0  0  0  0  0
    4.4622    3.8169   -1.9317 C   0  0  0  0  0  0  0  0  0  0  0  0
    5.2087    3.6799   -3.0919 C   0  0  0  0  0  0  0  0  0  0  0  0
    6.4489    4.2667   -3.1103 C   0  0  0  0  0  0  0  0  0  0  0  0
    6.8838    4.9336   -2.0074 C   0  0  0  0  0  0  0  0  0  0  0  0
    5.5612    4.7696   -0.8986 S   0  0  0  0  0  0  0  0  0  0  0  0
    8.5320    5.8232   -1.7465 Br  0  0  0  0  0  0  0  0  0  0  0  0
    1.1765    1.5884   -0.0006 C   0  0  0  0  0  0  0  0  0  0  0  0
    2.1986    0.9442   -0.0139 O   0  0  0  0  0  0  0  0  0  0  0  0
   -0.0110    0.9628    0.0073 O   0  0  0  0  0  1  0  0  0  0  0  0
    1.4104    8.0643    1.0428 H   0  0  0  0  0  0  0  0  0  0  0  0
    2.9853    7.2854    1.4167 H   0  0  0  0  0  0  0  0  0  0  0  0
    1.6444    7.2183    2.6100 H   0  0  0  0  0  0  0  0  0  0  0  0
    1.2759    2.8768    2.2089 H   0  0  0  0  0  0  0  0  0  0  0  0
   -0.0090    3.9794    1.6090 H   0  0  0  0  0  0  0  0  0  0  0  0
    3.7733    5.1559    0.3029 H   0  0  0  0  0  0  0  0  0  0  0  0
    3.8347    3.6594    1.2945 H   0  0  0  0  0  0  0  0  0  0  0  0
    4.8294    3.1373   -3.9452 H   0  0  0  0  0  0  0  0  0  0  0  0
    7.0740    4.1960   -3.9882 H   0  0  0  0  0  0  0  0  0  0  0  0
  1  2  1  0  0  0  0
  1 21  1  0  0  0  0
  1 22  1  0  0  0  0
  1 23  1  0  0  0  0
  2  3  1  0  0  0  0
  3  4  1  1  0  0  0
  3  9  1  0  0  0  0
  3  5  1  0  0  0  0
  5  6  1  0  0  0  0
  5 24  1  0  0  0  0
  5 25  1  0  0  0  0
  6  7  1  6  0  0  0
  6  8  1  0  0  0  0
  6 18  1  0  0  0  0
  8  9  1  0  0  0  0
  8 10  1  0  0  0  0
  9 26  1  0  0  0  0
  9 27  1  0  0  0  0
 10 11  2  0  0  0  0
 10 12  1  0  0  0  0
 12 16  1  0  0  0  0
 12 13  2  0  0  0  0
 13 14  1  0  0  0  0
 13 28  1  0  0  0  0
 14 15  2  0  0  0  0
 14 29  1  0  0  0  0
 15 16  1  0  0  0  0
 15 17  1  0  0  0  0
 18 19  2  0  0  0  0
 18 20  1  0  0  0  0
M  END
$$$$
ZINC22205743
 OpenBabel01252620473D

 42 43  0  0  0  0  0  0  0  0999 V2000
    0.6961    5.6418    2.1514 C   0  0  0  0  0  0  0  0  0  0  0  0
    1.0431    4.4649    1.2764 C   0  0  0  0  0  0  0  0  0  0  0  0
    2.1873    4.2977    0.9107 O   0  0  0  0  0  0  0  0  0  0  0  0
    0.0820    3.5981    0.9003 N   0  0  0  0  0  0  0  0  0  0  0  0
    0.4195    2.4504    0.1867 C   0  0  0  0  0  0  0  0  0  0  0  0
    1.6150    1.7964    0.4463 C   0  0  0  0  0  0  0  0  0  0  0  0
    1.9492    0.6487   -0.2703 C   0  0  0  0  0  0  0  0  0  0  0  0
    1.0815    0.1564   -1.2503 C   0  0  0  0  0  0  0  0  0  0  0  0
   -0.1051    0.8023   -1.5114 C   0  0  0  0  0  0  0  0  0  0  0  0
   -0.4478    1.9537   -0.7976 C   0  0  0  0  0  0  0  0  0  0  0  0
   -1.7178    2.6495   -1.0829 C   0  0  0  0  0  0  0  0  0  0  0  0
   -2.0576    3.5968   -0.4025 O   0  0  0  0  0  0  0  0  0  0  0  0
   -2.5002    2.2341   -2.0981 O   0  0  0  0  0  1  0  0  0  0  0  0
    3.2238   -0.0495    0.0059 C   0  0  0  0  0  0  0  0  0  0  0  0
    4.2233    0.5907    0.2650 O   0  0  0  0  0  0  0  0  0  0  0  0
    3.2813   -1.5271   -0.0333 C   0  0  0  0  0  0  0  0  0  0  0  0
    2.1052   -2.2678   -0.1880 C   0  0  0  0  0  0  0  0  0  0  0  0
    2.1538   -3.6423   -0.2309 C   0  0  0  0  0  0  0  0  0  0  0  0
    3.3785   -4.3041   -0.1084 C   0  0  0  0  0  0  0  0  0  0  0  0
    4.5598   -3.5650    0.0526 C   0  0  0  0  0  0  0  0  0  0  0  0
    4.5068   -2.1793    0.0896 C   0  0  0  0  0  0  0  0  0  0  0  0
    5.7828   -4.2206    0.1746 N   0  0  0  0  0  0  0  0  0  0  0  0
    6.8064   -3.6237    0.8168 C   0  0  0  0  0  0  0  0  0  0  0  0
    6.6329   -2.5642    1.3810 O   0  0  0  0  0  0  0  0  0  0  0  0
    8.1664   -4.2726    0.8337 C   0  0  0  0  0  0  0  0  0  0  0  0
    3.4290   -5.7786   -0.1489 C   0  0  0  0  0  0  0  0  0  0  0  0
    4.4778   -6.3563    0.0564 O   0  0  0  0  0  0  0  0  0  0  0  0
    2.3119   -6.4839   -0.4135 O   0  0  0  0  0  1  0  0  0  0  0  0
   -0.3802    5.6257    2.3777 H   0  0  0  0  0  0  0  0  0  0  0  0
    0.9464    6.5754    1.6264 H   0  0  0  0  0  0  0  0  0  0  0  0
    1.2688    5.5833    3.0887 H   0  0  0  0  0  0  0  0  0  0  0  0
   -0.9690    3.7969    1.1569 H   0  0  0  0  0  0  0  0  0  0  0  0
    2.2857    2.1759    1.2030 H   0  0  0  0  0  0  0  0  0  0  0  0
    1.3437   -0.7330   -1.8040 H   0  0  0  0  0  0  0  0  0  0  0  0
   -0.7722    0.4191   -2.2693 H   0  0  0  0  0  0  0  0  0  0  0  0
    1.1567   -1.7595   -0.2785 H   0  0  0  0  0  0  0  0  0  0  0  0
    1.2438   -4.2105   -0.3549 H   0  0  0  0  0  0  0  0  0  0  0  0
    5.4140   -1.6066    0.2137 H   0  0  0  0  0  0  0  0  0  0  0  0
    5.9132   -5.2256   -0.2532 H   0  0  0  0  0  0  0  0  0  0  0  0
    8.8664   -3.6422    1.4017 H   0  0  0  0  0  0  0  0  0  0  0  0
    8.5307   -4.3874   -0.1979 H   0  0  0  0  0  0  0  0  0  0  0  0
    8.0948   -5.2618    1.3096 H   0  0  0  0  0  0  0  0  0  0  0  0
  1  2  1  0  0  0  0
  1 29  1  0  0  0  0
  1 30  1  0  0  0  0
  1 31  1  0  0  0  0
  2  3  2  0  0  0  0
  2  4  1  0  0  0  0
  4  5  1  0  0  0  0
  4 32  1  0  0  0  0
  5 10  2  0  0  0  0
  5  6  1  0  0  0  0
  6  7  2  0  0  0  0
  6 33  1  0  0  0  0
  7  8  1  0  0  0  0
  7 14  1  0  0  0  0
  8  9  2  0  0  0  0
  8 34  1  0  0  0  0
  9 10  1  0  0  0  0
  9 35  1  0  0  0  0
 10 11  1  0  0  0  0
 11 12  2  0  0  0  0
 11 13  1  0  0  0  0
 14 15  2  0  0  0  0
 14 16  1  0  0  0  0
 16 21  2  0  0  0  0
 16 17  1  0  0  0  0
 17 18  2  0  0  0  0
 17 36  1  0  0  0  0
 18 19  1  0  0  0  0
 18 37  1  0  0  0  0
 19 20  2  0  0  0  0
 19 26  1  0  0  0  0
 20 21  1  0  0  0  0
 20 22  1  0  0  0  0
 21 38  1  0  0  0  0
 22 23  1  0  0  0  0
 22 39  1  0  0  0  0
 23 24  2  0  0  0  0
 23 25  1  0  0  0  0
 25 40  1  0  0  0  0
 25 41  1  0  0  0  0
 25 42  1  0  0  0  0
 26 27  2  0  0  0  0
 26 28  1  0  0  0  0
M  END
$$$$
ZINC16462416
 OpenBabel01252620473D

 81 83  0  0  0  0  0  0  0  0999 V2000
    7.9553    3.3960   -3.5733 C   0  0  0  0  0  0  0  0  0  0  0  0
    6.5211    3.9258   -3.5154 C   0  0  0  0  0  0  0  0  0  0  0  0
    5.7137    3.1031   -2.5093 C   0  0  0  0  0  0  0  0  0  0  0  0
    4.2512    3.5511   -2.5410 C   0  0  0  0  0  0  0  0  0  0  0  0
    3.4560    2.6850   -1.6671 N   0  0  0  0  0  0  0  0  0  0  0  0
    3.1965    3.0827   -0.2812 C   0  0  0  0  0  0  0  0  0  0  0  0
    1.8624    3.7787   -0.1997 C   0  0  0  0  0  0  0  0  0  0  0  0
    1.2629    4.4583   -1.1984 C   0  0  0  0  0  0  0  0  0  0  0  0
    0.0419    4.9526   -0.6986 C   0  0  0  0  0  0  0  0  0  0  0  0
   -0.0628    4.5481    0.5836 C   0  0  0  0  0  0  0  0  0  0  0  0
    1.0534    3.8304    0.8966 N   0  0  0  0  0  0  0  0  0  0  0  0
    1.3370    3.2168    2.1963 C   0  0  0  0  0  0  0  0  0  0  0  0
    2.1510    4.1688    3.0343 C   0  0  0  0  0  0  0  0  0  0  0  0
    3.5278    4.1953    2.9101 C   0  0  0  0  0  0  0  0  0  0  0  0
    4.2740    5.0711    3.6758 C   0  0  0  0  0  0  0  0  0  0  0  0
    3.6444    5.9147    4.5722 C   0  0  0  0  0  0  0  0  0  0  0  0
    2.2685    5.8848    4.6998 C   0  0  0  0  0  0  0  0  0  0  0  0
    1.5218    5.0114    3.9311 C   0  0  0  0  0  0  0  0  0  0  0  0
    1.5823    6.8040    5.6773 C   0  0  0  0  0  0  0  0  0  0  0  0
    2.9632    1.5223   -2.1380 C   0  0  0  0  0  0  0  0  0  0  0  0
    2.3050    0.8053   -1.4145 O   0  0  0  0  0  0  0  0  0  0  0  0
    3.2302    1.1132   -3.5637 C   0  0  0  0  0  0  0  0  0  0  0  0
    2.5923   -0.1787   -3.8285 N   0  0  0  0  0  0  0  0  0  0  0  0
    1.2167   -0.2273   -4.3303 C   0  0  0  0  0  0  0  0  0  0  0  0
    1.1880    0.2422   -5.7861 C   0  0  0  0  0  0  0  0  0  0  0  0
   -0.2486    0.1915   -6.3101 C   0  0  0  0  0  0  0  0  0  0  0  0
   -1.1072    1.1990   -5.5429 C   0  0  0  0  0  0  0  0  0  0  0  0
   -0.2608    0.5409   -7.7996 C   0  0  0  0  0  0  0  0  0  0  0  0
    3.2709   -1.3226   -3.6107 C   0  0  0  0  0  0  0  0  0  0  0  0
    4.3900   -1.2847   -3.1368 O   0  0  0  0  0  0  0  0  0  0  0  0
    2.6556   -2.6213   -3.9474 C   0  0  0  0  0  0  0  0  0  0  0  0
    1.6993   -2.7011   -4.9630 C   0  0  0  0  0  0  0  0  0  0  0  0
    1.1322   -3.9157   -5.2783 C   0  0  0  0  0  0  0  0  0  0  0  0
    1.5008   -5.0592   -4.5795 C   0  0  0  0  0  0  0  0  0  0  0  0
    2.4475   -4.9831   -3.5646 C   0  0  0  0  0  0  0  0  0  0  0  0
    3.0238   -3.7734   -3.2475 C   0  0  0  0  0  0  0  0  0  0  0  0
    0.9351   -6.2533   -4.8891 O   0  0  0  0  0  0  0  0  0  0  0  0
   -0.0305   -6.2601   -5.9424 C   0  0  0  0  0  0  0  0  0  0  0  0
    8.5305    3.9822   -4.2900 H   0  0  0  0  0  0  0  0  0  0  0  0
    8.4127    3.4772   -2.5873 H   0  0  0  0  0  0  0  0  0  0  0  0
    7.9444    2.3513   -3.8839 H   0  0  0  0  0  0  0  0  0  0  0  0
    6.0637    3.8447   -4.5014 H   0  0  0  0  0  0  0  0  0  0  0  0
    6.5320    4.9706   -3.2048 H   0  0  0  0  0  0  0  0  0  0  0  0
    6.1184    3.2541   -1.5085 H   0  0  0  0  0  0  0  0  0  0  0  0
    5.7759    2.0467   -2.7708 H   0  0  0  0  0  0  0  0  0  0  0  0
    3.8726    3.4840   -3.5610 H   0  0  0  0  0  0  0  0  0  0  0  0
    4.1793    4.5819   -2.1939 H   0  0  0  0  0  0  0  0  0  0  0  0
    3.9811    3.7605    0.0553 H   0  0  0  0  0  0  0  0  0  0  0  0
    3.1839    2.1974    0.3546 H   0  0  0  0  0  0  0  0  0  0  0  0
    1.6499    4.6013   -2.1965 H   0  0  0  0  0  0  0  0  0  0  0  0
   -0.6789    5.5446   -1.2430 H   0  0  0  0  0  0  0  0  0  0  0  0
   -0.8864    4.7602    1.2492 H   0  0  0  0  0  0  0  0  0  0  0  0
    0.3993    2.9950    2.7058 H   0  0  0  0  0  0  0  0  0  0  0  0
    1.8971    2.2936    2.0478 H   0  0  0  0  0  0  0  0  0  0  0  0
    4.0199    3.5337    2.2125 H   0  0  0  0  0  0  0  0  0  0  0  0
    5.3492    5.0942    3.5763 H   0  0  0  0  0  0  0  0  0  0  0  0
    4.2278    6.5967    5.1730 H   0  0  0  0  0  0  0  0  0  0  0  0
    0.4466    4.9879    4.0311 H   0  0  0  0  0  0  0  0  0  0  0  0
    1.5007    6.3094    6.6452 H   0  0  0  0  0  0  0  0  0  0  0  0
    2.1641    7.7195    5.7849 H   0  0  0  0  0  0  0  0  0  0  0  0
    0.5860    7.0478    5.3087 H   0  0  0  0  0  0  0  0  0  0  0  0
    2.8228    1.8650   -4.2397 H   0  0  0  0  0  0  0  0  0  0  0  0
    4.3052    1.0269   -3.7217 H   0  0  0  0  0  0  0  0  0  0  0  0
    0.8443   -1.2500   -4.2709 H   0  0  0  0  0  0  0  0  0  0  0  0
    0.5863    0.4247   -3.7257 H   0  0  0  0  0  0  0  0  0  0  0  0
    1.5605    1.2649   -5.8455 H   0  0  0  0  0  0  0  0  0  0  0  0
    1.8185   -0.4098   -6.3907 H   0  0  0  0  0  0  0  0  0  0  0  0
   -0.6516   -0.8113   -6.1689 H   0  0  0  0  0  0  0  0  0  0  0  0
   -0.7041    2.2018   -5.6841 H   0  0  0  0  0  0  0  0  0  0  0  0
   -2.1306    1.1628   -5.9162 H   0  0  0  0  0  0  0  0  0  0  0  0
   -1.0985    0.9501   -4.4817 H   0  0  0  0  0  0  0  0  0  0  0  0
    0.3509   -0.1768   -8.3462 H   0  0  0  0  0  0  0  0  0  0  0  0
   -1.2842    0.5048   -8.1729 H   0  0  0  0  0  0  0  0  0  0  0  0
    0.1423    1.5438   -7.9409 H   0  0  0  0  0  0  0  0  0  0  0  0
    1.4086   -1.8121   -5.5031 H   0  0  0  0  0  0  0  0  0  0  0  0
    0.3965   -3.9790   -6.0664 H   0  0  0  0  0  0  0  0  0  0  0  0
    2.7312   -5.8739   -3.0239 H   0  0  0  0  0  0  0  0  0  0  0  0
    3.7596   -3.7151   -2.4591 H   0  0  0  0  0  0  0  0  0  0  0  0
    0.4342   -5.9085   -6.8636 H   0  0  0  0  0  0  0  0  0  0  0  0
   -0.4030   -7.2742   -6.0874 H   0  0  0  0  0  0  0  0  0  0  0  0
   -0.8594   -5.6027   -5.6798 H   0  0  0  0  0  0  0  0  0  0  0  0
  1  2  1  0  0  0  0
  1 39  1  0  0  0  0
  1 40  1  0  0  0  0
  1 41  1  0  0  0  0
  2  3  1  0  0  0  0
  2 42  1  0  0  0  0
  2 43  1  0  0  0  0
  3  4  1  0  0  0  0
  3 44  1  0  0  0  0
  3 45  1  0  0  0  0
  4  5  1  0  0  0  0
  4 46  1  0  0  0  0
  4 47  1  0  0  0  0
  5  6  1  0  0  0  0
  5 20  1  0  0  0  0
  6  7  1  0  0  0  0
  6 48  1  0  0  0  0
  6 49  1  0  0  0  0
  7 11  1  0  0  0  0
  7  8  2  0  0  0  0
  8  9  1  0  0  0  0
  8 50  1  0  0  0  0
  9 10  2  0  0  0  0
  9 51  1  0  0  0  0
 10 11  1  0  0  0  0
 10 52  1  0  0  0  0
 11 12  1  0  0  0  0
 12 13  1  0  0  0  0
 12 53  1  0  0  0  0
 12 54  1  0  0  0  0
 13 18  2  0  0  0  0
 13 14  1  0  0  0  0
 14 15  2  0  0  0  0
 14 55  1  0  0  0  0
 15 16  1  0  0  0  0
 15 56  1  0  0  0  0
 16 17  2  0  0  0  0
 16 57  1  0  0  0  0
 17 18  1  0  0  0  0
 17 19  1  0  0  0  0
 18 58  1  0  0  0  0
 19 59  1  0  0  0  0
 19 60  1  0  0  0  0
 19 61  1  0  0  0  0
 20 21  2  0  0  0  0
 20 22  1  0  0  0  0
 22 23  1  0  0  0  0
 22 62  1  0  0  0  0
 22 63  1  0  0  0  0
 23 24  1  0  0  0  0
 23 29  1  0  0  0  0
 24 25  1  0  0  0  0
 24 64  1  0  0  0  0
 24 65  1  0  0  0  0
 25 26  1  0  0  0  0
 25 66  1  0  0  0  0
 25 67  1  0  0  0  0
 26 27  1  0  0  0  0
 26 28  1  0  0  0  0
 26 68  1  0  0  0  0
 27 69  1  0  0  0  0
 27 70  1  0  0  0  0
 27 71  1  0  0  0  0
 28 72  1  0  0  0  0
 28 73  1  0  0  0  0
 28 74  1  0  0  0  0
 29 30  2  0  0  0  0
 29 31  1  0  0  0  0
 31 36  2  0  0  0  0
 31 32  1  0  0  0  0
 32 33  2  0  0  0  0
 32 75  1  0  0  0  0
 33 34  1  0  0  0  0
 33 76  1  0  0  0  0
 34 35  2  0  0  0  0
 34 37  1  0  0  0  0
 35 36  1  0  0  0  0
 35 77  1  0  0  0  0
 36 78  1  0  0  0  0
 37 38  1  0  0  0  0
 38 79  1  0  0  0  0
 38 80  1  0  0  0  0
 38 81  1  0  0  0  0
M  END
$$$$
ZINC50222851
 OpenBabel01252620473D

 27 28  0  0  0  0  0  0  0  0999 V2000
   -0.0113    1.3801    0.0652 C   0  0  0  0  0  0  0  0  0  0  0  0
    1.1768    2.0849    0.0650 C   0  0  0  0  0  0  0  0  0  0  0  0
    2.3835    1.4085    0.0428 C   0  0  0  0  0  0  0  0  0  0  0  0
    2.4030    0.0254    0.0207 C   0  0  0  0  0  0  0  0  0  0  0  0
    1.2172   -0.6832    0.0212 C   0  0  0  0  0  0  0  0  0  0  0  0
    0.0062   -0.0069    0.0435 C   0  0  0  0  0  0  0  0  0  0  0  0
   -1.1617   -0.7022    0.0441 O   0  0  0  0  0  0  0  0  0  0  0  0
   -1.0679   -2.1279    0.0210 C   0  0  0  0  0  0  0  0  0  0  0  0
   -2.4525   -2.7226    0.0253 C   0  0  0  0  0  0  0  0  0  0  0  0
   -3.4263   -1.9953    0.0460 O   0  0  0  0  0  0  0  0  0  0  0  0
   -2.6093   -4.0438    0.0063 N   0  0  0  0  0  0  0  0  0  0  0  0
   -3.8257   -4.5710    0.1159 C   0  0  0  0  0  0  0  0  0  0  0  0
   -4.9804   -3.8386    0.1402 N   0  0  0  0  0  0  0  0  0  0  0  0
   -6.0705   -4.8227    0.2716 C   0  0  0  0  0  0  0  0  0  0  0  0
   -5.3430   -6.1511    0.3125 C   0  0  0  0  0  0  0  0  0  0  0  0
   -5.8991   -7.3678    0.4256 O   0  5  0  0  0  0  0  0  0  0  0  0
   -4.0695   -5.8810    0.2102 N   0  0  0  0  0  0  0  0  0  0  0  0
    4.0083    2.3759    0.0421 Br  0  0  0  0  0  0  0  0  0  0  0  0
   -0.9530    1.9084    0.0867 H   0  0  0  0  0  0  0  0  0  0  0  0
    1.1637    3.1647    0.0819 H   0  0  0  0  0  0  0  0  0  0  0  0
    3.3460   -0.5007    0.0027 H   0  0  0  0  0  0  0  0  0  0  0  0
    1.2329   -1.7629    0.0036 H   0  0  0  0  0  0  0  0  0  0  0  0
   -0.5399   -2.4428   -0.8791 H   0  0  0  0  0  0  0  0  0  0  0  0
   -0.5227   -2.4704    0.9006 H   0  0  0  0  0  0  0  0  0  0  0  0
   -6.6253   -4.6601    1.1957 H   0  0  0  0  0  0  0  0  0  0  0  0
   -6.7361   -4.7758   -0.5903 H   0  0  0  0  0  0  0  0  0  0  0  0
   -5.0646   -2.8740    0.0828 H   0  0  0  0  0  0  0  0  0  0  0  0
  1  6  2  0  0  0  0
  1  2  1  0  0  0  0
  1 19  1  0  0  0  0
  2  3  2  0  0  0  0
  2 20  1  0  0  0  0
  3  4  1  0  0  0  0
  3 18  1  0  0  0  0
  4  5  2  0  0  0  0
  4 21  1  0  0  0  0
  5  6  1  0  0  0  0
  5 22  1  0  0  0  0
  6  7  1  0  0  0  0
  7  8  1  0  0  0  0
  8  9  1  0  0  0  0
  8 23  1  0  0  0  0
  8 24  1  0  0  0  0
  9 10  2  0  0  0  0
  9 11  1  0  0  0  0
 11 12  2  0  0  0  0
 12 13  1  0  0  0  0
 12 17  1  0  0  0  0
 13 14  1  0  0  0  0
 13 27  1  0  0  0  0
 14 15  1  0  0  0  0
 14 25  1  0  0  0  0
 14 26  1  0  0  0  0
 15 16  1  0  0  0  0
 15 17  2  0  0  0  0
M  CHG  1  16  -1
M  END
$$$$
ZINC16910022
 OpenBabel01252620473D

 37 39  0  0  0  0  0  0  0  0999 V2000
    1.0051   -8.0098    0.3174 C   0  0  0  0  0  0  0  0  0  0  0  0
    0.7051   -9.2148   -0.2977 C   0  0  0  0  0  0  0  0  0  0  0  0
   -0.4945   -9.3821   -0.9623 C   0  0  0  0  0  0  0  0  0  0  0  0
   -1.4091   -8.3426   -1.0187 C   0  0  0  0  0  0  0  0  0  0  0  0
   -1.1104   -7.1191   -0.3965 C   0  0  0  0  0  0  0  0  0  0  0  0
    0.1114   -6.9628    0.2691 C   0  0  0  0  0  0  0  0  0  0  0  0
   -2.0700   -6.0099   -0.4492 C   0  0  0  0  0  0  0  0  0  0  0  0
   -1.6267   -4.7351   -0.5938 C   0  0  0  0  0  0  0  0  0  0  0  0
   -0.2593   -4.2302   -0.8589 C   0  0  0  0  0  0  0  0  0  0  0  0
    0.6923   -4.9842   -0.9853 O   0  0  0  0  0  0  0  0  0  0  0  0
   -0.1272   -2.9254   -0.9509 N   0  0  0  0  0  0  0  0  0  0  0  0
   -1.1507   -2.0967   -0.8162 C   0  0  0  0  0  0  0  0  0  0  0  0
   -2.5277   -3.1924   -0.5109 S   0  0  0  0  0  0  0  0  0  0  0  0
   -1.1523   -0.7280   -0.8879 N   0  0  0  0  0  2  0  0  0  0  0  0
    0.0217   -0.0435   -1.2215 C   0  0  0  0  0  0  0  0  0  0  0  0
    1.2188   -0.7355   -1.3476 C   0  0  0  0  0  0  0  0  0  0  0  0
    2.3762   -0.0570   -1.6766 C   0  0  0  0  0  0  0  0  0  0  0  0
    2.3446    1.3103   -1.8810 C   0  0  0  0  0  0  0  0  0  0  0  0
    1.1551    2.0042   -1.7562 C   0  0  0  0  0  0  0  0  0  0  0  0
   -0.0076    1.3317   -1.4271 C   0  0  0  0  0  0  0  0  0  0  0  0
   -1.1711    2.0086   -1.3110 F   0  0  0  0  0  0  0  0  0  0  0  0
   -2.5873   -8.5056   -1.6720 O   0  0  0  0  0  0  0  0  0  0  0  0
   -2.8212   -9.7773   -2.2803 C   0  0  0  0  0  0  0  0  0  0  0  0
   -4.1694   -9.7717   -2.9536 C   0  0  0  0  0  0  0  0  0  0  0  0
   -4.8591   -8.7803   -2.9165 O   0  0  0  0  0  0  0  0  0  0  0  0
   -4.6040  -10.8680   -3.5947 O   0  0  0  0  0  1  0  0  0  0  0  0
    1.9460   -7.8898    0.8339 H   0  0  0  0  0  0  0  0  0  0  0  0
    1.4140  -10.0286   -0.2576 H   0  0  0  0  0  0  0  0  0  0  0  0
   -0.7198  -10.3246   -1.4391 H   0  0  0  0  0  0  0  0  0  0  0  0
    0.3512   -6.0243    0.7467 H   0  0  0  0  0  0  0  0  0  0  0  0
   -3.1485   -6.2117   -0.3715 H   0  0  0  0  0  0  0  0  0  0  0  0
    1.2451   -1.8033   -1.1882 H   0  0  0  0  0  0  0  0  0  0  0  0
    3.3073   -0.5954   -1.7747 H   0  0  0  0  0  0  0  0  0  0  0  0
    3.2513    1.8375   -2.1385 H   0  0  0  0  0  0  0  0  0  0  0  0
    1.1340    3.0721   -1.9162 H   0  0  0  0  0  0  0  0  0  0  0  0
   -2.0389   -9.9757   -3.0277 H   0  0  0  0  0  0  0  0  0  0  0  0
   -2.7994  -10.5620   -1.5097 H   0  0  0  0  0  0  0  0  0  0  0  0
  1  6  2  0  0  0  0
  1  2  1  0  0  0  0
  1 27  1  0  0  0  0
  2  3  2  0  0  0  0
  2 28  1  0  0  0  0
  3  4  1  0  0  0  0
  3 29  1  0  0  0  0
  4  5  2  0  0  0  0
  4 22  1  0  0  0  0
  5  6  1  0  0  0  0
  5  7  1  0  0  0  0
  6 30  1  0  0  0  0
  7  8  2  0  0  0  0
  7 31  1  0  0  0  0
  8 13  1  0  0  0  0
  8  9  1  0  0  0  0
  9 10  2  0  0  0  0
  9 11  1  0  0  0  0
 11 12  2  0  0  0  0
 12 13  1  0  0  0  0
 12 14  1  0  0  0  0
 14 15  1  0  0  0  0
 15 20  2  0  0  0  0
 15 16  1  0  0  0  0
 16 17  2  0  0  0  0
 16 32  1  0  0  0  0
 17 18  1  0  0  0  0
 17 33  1  0  0  0  0
 18 19  2  0  0  0  0
 18 34  1  0  0  0  0
 19 20  1  0  0  0  0
 19 35  1  0  0  0  0
 20 21  1  0  0  0  0
 22 23  1  0  0  0  0
 23 24  1  0  0  0  0
 23 36  1  0  0  0  0
 23 37  1  0  0  0  0
 24 25  2  0  0  0  0
 24 26  1  0  0  0  0
M  END
$$$$
ZINC13209643
 OpenBabel01252620473D

 57 59  0  0  1  0  0  0  0  0999 V2000
   13.7426   -0.7779   -3.5277 C   0  0  0  0  0  0  0  0  0  0  0  0
   13.0220   -2.1272   -3.5578 C   0  0  0  0  0  0  0  0  0  0  0  0
   12.1002   -2.2086   -2.4390 O   0  0  0  0  0  0  0  0  0  0  0  0
   11.3842   -3.3378   -2.3202 C   0  0  0  0  0  0  0  0  0  0  0  0
   11.5233   -4.2287   -3.1245 O   0  0  0  0  0  0  0  0  0  0  0  0
   10.4071   -3.4944   -1.1837 C   0  0  2  0  0  0  0  0  0  0  0  0
    9.7280   -4.8626   -1.2800 C   0  0  0  0  0  0  0  0  0  0  0  0
    8.7611   -5.0322   -0.1040 C   0  0  0  0  0  0  0  0  0  0  0  0
    7.8297   -3.8959   -0.0899 N   0  0  0  0  0  0  0  0  0  0  0  0
    8.3782   -2.5328   -0.0944 C   0  0  0  0  0  0  0  0  0  0  0  0
    9.3495   -2.3913   -1.2650 C   0  0  0  0  0  0  0  0  0  0  0  0
    6.4976   -4.1000   -0.0786 C   0  0  0  0  0  0  0  0  0  0  0  0
    6.0572   -5.2300   -0.0801 O   0  0  0  0  0  0  0  0  0  0  0  0
    5.5552   -2.9241   -0.0642 C   0  0  0  0  0  0  0  0  0  0  0  0
    3.8425   -3.5219   -0.0513 S   0  0  0  0  0  0  0  0  0  0  0  0
    2.8768   -2.0482   -0.0352 C   0  0  0  0  0  0  0  0  0  0  0  0
    3.3641   -0.8093   -0.0336 N   0  0  0  0  0  0  0  0  0  0  0  0
    2.3641    0.0657   -0.0201 C   0  0  0  0  0  0  0  0  0  0  0  0
    2.3369    1.4034   -0.0137 N   0  0  0  0  0  0  0  0  0  0  0  0
    1.1954    2.0545    0.0017 C   0  0  0  0  0  0  0  0  0  0  0  0
   -0.0164    1.3545    0.0095 C   0  0  0  0  0  0  0  0  0  0  0  0
    0.0021   -0.0041    0.0020 C   0  0  0  0  0  0  0  0  0  0  0  0
    1.1985   -0.6474   -0.0129 N   0  0  0  0  0  0  0  0  0  0  0  0
    1.5597   -2.0011   -0.0228 N   0  0  0  0  0  0  0  0  0  0  0  0
   -1.2862   -0.7860    0.0096 C   0  0  0  0  0  0  0  0  0  0  0  0
   -1.3266    2.0990    0.0198 C   0  0  0  0  0  0  0  0  0  0  0  0
   -1.7631    2.3431    1.4657 C   0  0  0  0  0  0  0  0  0  0  0  0
   -3.0733    3.0876    1.4760 C   0  0  0  0  0  0  0  0  0  0  0  0
   -3.6036    3.3918    0.4338 O   0  0  0  0  0  0  0  0  0  0  0  0
    1.1914    3.5615    0.0098 C   0  0  0  0  0  0  0  0  0  0  0  0
   13.0108    0.0266   -3.6007 H   0  0  0  0  0  0  0  0  0  0  0  0
   14.2958   -0.6822   -2.5934 H   0  0  0  0  0  0  0  0  0  0  0  0
   14.4347   -0.7167   -4.3676 H   0  0  0  0  0  0  0  0  0  0  0  0
   13.7539   -2.9317   -3.4849 H   0  0  0  0  0  0  0  0  0  0  0  0
   12.4688   -2.2229   -4.4921 H   0  0  0  0  0  0  0  0  0  0  0  0
   10.9385   -3.4188   -0.2351 H   0  0  0  0  0  0  0  0  0  0  0  0
   10.4839   -5.6471   -1.2456 H   0  0  0  0  0  0  0  0  0  0  0  0
    9.1759   -4.9295   -2.2175 H   0  0  0  0  0  0  0  0  0  0  0  0
    9.3224   -5.0562    0.8300 H   0  0  0  0  0  0  0  0  0  0  0  0
    8.2026   -5.9609   -0.2211 H   0  0  0  0  0  0  0  0  0  0  0  0
    7.5672   -1.8130   -0.2052 H   0  0  0  0  0  0  0  0  0  0  0  0
    8.9077   -2.3489    0.8404 H   0  0  0  0  0  0  0  0  0  0  0  0
    9.8359   -1.4169   -1.2198 H   0  0  0  0  0  0  0  0  0  0  0  0
    8.8010   -2.4815   -2.2026 H   0  0  0  0  0  0  0  0  0  0  0  0
    5.7207   -2.3149   -0.9527 H   0  0  0  0  0  0  0  0  0  0  0  0
    5.7371   -2.3236    0.8271 H   0  0  0  0  0  0  0  0  0  0  0  0
   -1.6062   -0.9690   -1.0162 H   0  0  0  0  0  0  0  0  0  0  0  0
   -1.1303   -1.7381    0.5169 H   0  0  0  0  0  0  0  0  0  0  0  0
   -2.0538   -0.2165    0.5336 H   0  0  0  0  0  0  0  0  0  0  0  0
   -1.2052    3.0551   -0.4895 H   0  0  0  0  0  0  0  0  0  0  0  0
   -2.0846    1.5075   -0.4937 H   0  0  0  0  0  0  0  0  0  0  0  0
   -1.8845    1.3871    1.9749 H   0  0  0  0  0  0  0  0  0  0  0  0
   -1.0051    2.9346    1.9792 H   0  0  0  0  0  0  0  0  0  0  0  0
    1.2003    3.9193    1.0394 H   0  0  0  0  0  0  0  0  0  0  0  0
    2.0755    3.9299   -0.5105 H   0  0  0  0  0  0  0  0  0  0  0  0
    0.2956    3.9251   -0.4936 H   0  0  0  0  0  0  0  0  0  0  0  0
   -3.6513    3.4129    2.6430 O   0  0  0  0  0  1  0  0  0  0  0  0
  1  2  1  0  0  0  0
  1 31  1  0  0  0  0
  1 32  1  0  0  0  0
  1 33  1  0  0  0  0
  2  3  1  0  0  0  0
  2 34  1  0  0  0  0
  2 35  1  0  0  0  0
  3  4  1  0  0  0  0
  4  5  2  0  0  0  0
  4  6  1  0  0  0  0
  6 11  1  0  0  0  0
  6  7  1  0  0  0  0
  6 36  1  1  0  0  0
  7  8  1  0  0  0  0
  7 37  1  0  0  0  0
  7 38  1  0  0  0  0
  8  9  1  0  0  0  0
  8 39  1  0  0  0  0
  8 40  1  0  0  0  0
  9 10  1  0  0  0  0
  9 12  1  0  0  0  0
 10 11  1  0  0  0  0
 10 41  1  0  0  0  0
 10 42  1  0  0  0  0
 11 43  1  0  0  0  0
 11 44  1  0  0  0  0
 12 13  2  0  0  0  0
 12 14  1  0  0  0  0
 14 15  1  0  0  0  0
 14 45  1  0  0  0  0
 14 46  1  0  0  0  0
 15 16  1  0  0  0  0
 16 24  2  0  0  0  0
 16 17  1  0  0  0  0
 17 18  2  0  0  0  0
 18 23  1  0  0  0  0
 18 19  1  0  0  0  0
 19 20  2  0  0  0  0
 20 21  1  0  0  0  0
 20 30  1  0  0  0  0
 21 22  2  0  0  0  0
 21 26  1  0  0  0  0
 22 23  1  0  0  0  0
 22 25  1  0  0  0  0
 23 24  1  0  0  0  0
 25 47  1  0  0  0  0
 25 48  1  0  0  0  0
 25 49  1  0  0  0  0
 26 27  1  0  0  0  0
 26 50  1  0  0  0  0
 26 51  1  0  0  0  0
 27 28  1  0  0  0  0
 27 52  1  0  0  0  0
 27 53  1  0  0  0  0
 28 29  2  0  0  0  0
 28 57  1  0  0  0  0
 30 54  1  0  0  0  0
 30 55  1  0  0  0  0
 30 56  1  0  0  0  0
M  END
$$$$
ZINC40055370
 OpenBabel01252620473D

 56 59  0  0  1  0  0  0  0  0999 V2000
   -6.4296    3.6723    1.9913 C   0  0  0  0  0  0  0  0  0  0  0  0
   -6.3505    5.0218    2.2785 C   0  0  0  0  0  0  0  0  0  0  0  0
   -5.1903    5.7225    1.9955 C   0  0  0  0  0  0  0  0  0  0  0  0
   -4.1106    5.0701    1.4250 C   0  0  0  0  0  0  0  0  0  0  0  0
   -4.1919    3.7205    1.1386 C   0  0  0  0  0  0  0  0  0  0  0  0
   -5.3508    3.0220    1.4216 C   0  0  0  0  0  0  0  0  0  0  0  0
   -5.4383    1.5504    1.1089 C   0  0  0  0  0  0  0  0  0  0  0  0
   -5.9399    1.3743   -0.2175 O   0  0  0  0  0  0  0  0  0  0  0  0
   -6.0806    0.0988   -0.6587 C   0  0  0  0  0  0  0  0  0  0  0  0
   -5.7466   -0.9636    0.1739 C   0  0  0  0  0  0  0  0  0  0  0  0
   -5.8877   -2.2591   -0.2697 C   0  0  0  0  0  0  0  0  0  0  0  0
   -6.3681   -2.5059   -1.5594 C   0  0  0  0  0  0  0  0  0  0  0  0
   -6.7032   -1.4347   -2.3933 C   0  0  0  0  0  0  0  0  0  0  0  0
   -6.5636   -0.1423   -1.9401 C   0  0  0  0  0  0  0  0  0  0  0  0
   -6.5206   -3.8934   -2.0395 C   0  0  0  0  0  0  0  0  0  0  0  0
   -6.1624   -4.8223   -1.3396 O   0  0  0  0  0  0  0  0  0  0  0  0
   -7.1038   -4.1525   -3.3597 C   0  0  0  0  0  0  0  0  0  0  0  0
   -8.2887   -4.7545   -3.6146 C   0  0  0  0  0  0  0  0  0  0  0  0
   -8.4974   -4.8164   -5.0765 C   0  0  0  0  0  0  0  0  0  0  0  0
   -9.4694   -5.2998   -5.6222 O   0  0  0  0  0  0  0  0  0  0  0  0
   -7.4520   -4.2585   -5.7136 N   0  0  0  0  0  0  0  0  0  0  0  0
   -6.5007   -3.7929   -4.6975 C   0  0  2  0  0  0  0  0  0  0  0  0
   -6.3685   -2.7135   -4.7711 H   0  0  0  0  0  0  0  0  0  0  0  0
   -5.1767   -4.4910   -4.8735 C   0  0  0  0  0  0  0  0  0  0  0  0
   -5.1198   -5.8038   -5.3159 C   0  0  0  0  0  0  0  0  0  0  0  0
   -3.8875   -6.4113   -5.4653 C   0  0  0  0  0  0  0  0  0  0  0  0
   -2.7755   -5.7573   -5.1920 N   0  0  0  0  0  0  0  0  0  0  0  0
   -2.7916   -4.5083   -4.7693 C   0  0  0  0  0  0  0  0  0  0  0  0
   -3.9864   -3.8339   -4.6022 C   0  0  0  0  0  0  0  0  0  0  0  0
   -7.2942   -4.1321   -7.1646 C   0  0  0  0  0  0  0  0  0  0  0  0
   -7.8987   -2.8058   -7.6297 C   0  0  0  0  0  0  0  0  0  0  0  0
   -7.7339   -2.6738   -9.1451 C   0  0  0  0  0  0  0  0  0  0  0  0
   -8.2984   -1.4350   -9.5795 O   0  0  0  0  0  0  0  0  0  0  0  0
   -9.1461   -5.2249   -2.6797 O   0  5  0  0  0  0  0  0  0  0  0  0
   -5.1121    7.0418    2.2755 F   0  0  0  0  0  0  0  0  0  0  0  0
   -7.3328    3.1246    2.2160 H   0  0  0  0  0  0  0  0  0  0  0  0
   -7.1935    5.5297    2.7233 H   0  0  0  0  0  0  0  0  0  0  0  0
   -3.2052    5.6157    1.2035 H   0  0  0  0  0  0  0  0  0  0  0  0
   -3.3500    3.2115    0.6932 H   0  0  0  0  0  0  0  0  0  0  0  0
   -4.4471    1.1033    1.1848 H   0  0  0  0  0  0  0  0  0  0  0  0
   -6.1101    1.0674    1.8185 H   0  0  0  0  0  0  0  0  0  0  0  0
   -5.3756   -0.7721    1.1700 H   0  0  0  0  0  0  0  0  0  0  0  0
   -5.6274   -3.0837    0.3774 H   0  0  0  0  0  0  0  0  0  0  0  0
   -7.0747   -1.6210   -3.3902 H   0  0  0  0  0  0  0  0  0  0  0  0
   -6.8261    0.6855   -2.5821 H   0  0  0  0  0  0  0  0  0  0  0  0
   -6.0271   -6.3449   -5.5407 H   0  0  0  0  0  0  0  0  0  0  0  0
   -3.8346   -7.4336   -5.8095 H   0  0  0  0  0  0  0  0  0  0  0  0
   -1.8603   -4.0052   -4.5552 H   0  0  0  0  0  0  0  0  0  0  0  0
   -3.9929   -2.8094   -4.2604 H   0  0  0  0  0  0  0  0  0  0  0  0
   -6.2344   -4.1572   -7.4184 H   0  0  0  0  0  0  0  0  0  0  0  0
   -7.8059   -4.9578   -7.6590 H   0  0  0  0  0  0  0  0  0  0  0  0
   -8.9584   -2.7806   -7.3759 H   0  0  0  0  0  0  0  0  0  0  0  0
   -7.3870   -1.9800   -7.1353 H   0  0  0  0  0  0  0  0  0  0  0  0
   -6.6741   -2.6989   -9.3989 H   0  0  0  0  0  0  0  0  0  0  0  0
   -8.2456   -3.4995   -9.6395 H   0  0  0  0  0  0  0  0  0  0  0  0
   -8.2295   -1.2840  -10.5322 H   0  0  0  0  0  0  0  0  0  0  0  0
  1  6  2  0  0  0  0
  1  2  1  0  0  0  0
  1 36  1  0  0  0  0
  2  3  2  0  0  0  0
  2 37  1  0  0  0  0
  3  4  1  0  0  0  0
  3 35  1  0  0  0  0
  4  5  2  0  0  0  0
  4 38  1  0  0  0  0
  5  6  1  0  0  0  0
  5 39  1  0  0  0  0
  6  7  1  0  0  0  0
  7  8  1  0  0  0  0
  7 40  1  0  0  0  0
  7 41  1  0  0  0  0
  8  9  1  0  0  0  0
  9 14  2  0  0  0  0
  9 10  1  0  0  0  0
 10 11  2  0  0  0  0
 10 42  1  0  0  0  0
 11 12  1  0  0  0  0
 11 43  1  0  0  0  0
 12 13  2  0  0  0  0
 12 15  1  0  0  0  0
 13 14  1  0  0  0  0
 13 44  1  0  0  0  0
 14 45  1  0  0  0  0
 15 16  2  0  0  0  0
 15 17  1  0  0  0  0
 17 22  1  0  0  0  0
 17 18  2  0  0  0  0
 18 19  1  0  0  0  0
 18 34  1  0  0  0  0
 19 20  2  0  0  0  0
 19 21  1  0  0  0  0
 21 22  1  0  0  0  0
 21 30  1  0  0  0  0
 22 23  1  6  0  0  0
 22 24  1  0  0  0  0
 24 29  2  0  0  0  0
 24 25  1  0  0  0  0
 25 26  2  0  0  0  0
 25 46  1  0  0  0  0
 26 27  1  0  0  0  0
 26 47  1  0  0  0  0
 27 28  2  0  0  0  0
 28 29  1  0  0  0  0
 28 48  1  0  0  0  0
 29 49  1  0  0  0  0
 30 31  1  0  0  0  0
 30 50  1  0  0  0  0
 30 51  1  0  0  0  0
 31 32  1  0  0  0  0
 31 52  1  0  0  0  0
 31 53  1  0  0  0  0
 32 33  1  0  0  0  0
 32 54  1  0  0  0  0
 32 55  1  0  0  0  0
 33 56  1  0  0  0  0
M  CHG  1  34  -1
M  END
$$$$
ZINC13092232
 OpenBabel01252620473D

 49 51  0  0  0  0  0  0  0  0999 V2000
    4.5261   -4.9696   -1.2671 C   0  0  0  0  0  0  0  0  0  0  0  0
    5.8364   -5.4004   -1.2893 C   0  0  0  0  0  0  0  0  0  0  0  0
    6.5135   -5.6278   -0.0896 C   0  0  0  0  0  0  0  0  0  0  0  0
    5.8600   -5.4121    1.1253 C   0  0  0  0  0  0  0  0  0  0  0  0
    4.5512   -4.9762    1.1330 C   0  0  0  0  0  0  0  0  0  0  0  0
    3.8862   -4.7528   -0.0596 C   0  0  0  0  0  0  0  0  0  0  0  0
    2.4563   -4.2771   -0.0433 C   0  0  0  0  0  0  0  0  0  0  0  0
    2.4290   -2.8124   -0.0357 N   0  0  0  0  0  0  0  0  0  0  0  0
    1.2495   -2.1605   -0.0210 C   0  0  0  0  0  0  0  0  0  0  0  0
    0.2084   -2.7878   -0.0140 O   0  0  0  0  0  0  0  0  0  0  0  0
    1.2219   -0.6823   -0.0132 C   0  0  0  0  0  0  0  0  0  0  0  0
    0.0021   -0.0041    0.0020 C   0  0  0  0  0  0  0  0  0  0  0  0
   -0.0166    1.3754    0.0096 C   0  0  0  0  0  0  0  0  0  0  0  0
    1.1702    2.0864    0.0021 C   0  0  0  0  0  0  0  0  0  0  0  0
    2.3828    1.4202   -0.0130 C   0  0  0  0  0  0  0  0  0  0  0  0
    2.4156    0.0411   -0.0207 C   0  0  0  0  0  0  0  0  0  0  0  0
    1.1421    3.5931    0.0099 C   0  0  0  0  0  0  0  0  0  0  0  0
    1.1459    4.0744    1.3936 N   0  0  0  0  0  0  0  0  0  0  0  0
    1.4905    5.6615    1.7173 S   0  0  0  0  0  0  0  0  0  0  0  0
    1.3892    5.8200    3.1258 O   0  0  0  0  0  0  0  0  0  0  0  0
    2.6758    5.9745    0.9987 O   0  0  0  0  0  0  0  0  0  0  0  0
    0.2009    6.6298    1.0075 C   0  0  0  0  0  0  0  0  0  0  0  0
    0.3166    7.0884   -0.2917 C   0  0  0  0  0  0  0  0  0  0  0  0
   -0.6964    7.8433   -0.8519 C   0  0  0  0  0  0  0  0  0  0  0  0
   -1.8228    8.1506   -0.1080 C   0  0  0  0  0  0  0  0  0  0  0  0
   -1.9357    7.6955    1.1958 C   0  0  0  0  0  0  0  0  0  0  0  0
   -0.9230    6.9350    1.7519 C   0  0  0  0  0  0  0  0  0  0  0  0
   -3.3474    8.0790    2.1305 Cl  0  0  0  0  0  0  0  0  0  0  0  0
   -2.8112    8.8931   -0.6529 F   0  0  0  0  0  0  0  0  0  0  0  0
    7.9152   -6.0941   -0.1055 C   0  0  0  0  0  0  0  0  0  0  0  0
    8.5018   -6.2907    0.9398 O   0  0  0  0  0  0  0  0  0  0  0  0
    3.9998   -4.7972   -2.1944 H   0  0  0  0  0  0  0  0  0  0  0  0
    6.3361   -5.5649   -2.2325 H   0  0  0  0  0  0  0  0  0  0  0  0
    6.3781   -5.5857    2.0569 H   0  0  0  0  0  0  0  0  0  0  0  0
    4.0447   -4.8086    2.0720 H   0  0  0  0  0  0  0  0  0  0  0  0
    1.9580   -4.6545    0.8496 H   0  0  0  0  0  0  0  0  0  0  0  0
    1.9407   -4.6455   -0.9302 H   0  0  0  0  0  0  0  0  0  0  0  0
    3.2598   -2.3118   -0.0413 H   0  0  0  0  0  0  0  0  0  0  0  0
   -0.9251   -0.5579    0.0075 H   0  0  0  0  0  0  0  0  0  0  0  0
   -0.9598    1.9014    0.0169 H   0  0  0  0  0  0  0  0  0  0  0  0
    3.3057    1.9812   -0.0192 H   0  0  0  0  0  0  0  0  0  0  0  0
    3.3627   -0.4777   -0.0322 H   0  0  0  0  0  0  0  0  0  0  0  0
    2.0204    3.9756   -0.5102 H   0  0  0  0  0  0  0  0  0  0  0  0
    0.2408    3.9423   -0.4938 H   0  0  0  0  0  0  0  0  0  0  0  0
    0.9466    3.4635    2.1202 H   0  0  0  0  0  0  0  0  0  0  0  0
    1.1973    6.8528   -0.8707 H   0  0  0  0  0  0  0  0  0  0  0  0
   -0.6073    8.1974   -1.8683 H   0  0  0  0  0  0  0  0  0  0  0  0
   -1.0103    6.5800    2.7681 H   0  0  0  0  0  0  0  0  0  0  0  0
    8.5428   -6.3012   -1.2794 O   0  0  0  0  0  1  0  0  0  0  0  0
  1  6  2  0  0  0  0
  1  2  1  0  0  0  0
  1 32  1  0  0  0  0
  2  3  2  0  0  0  0
  2 33  1  0  0  0  0
  3  4  1  0  0  0  0
  3 30  1  0  0  0  0
  4  5  2  0  0  0  0
  4 34  1  0  0  0  0
  5  6  1  0  0  0  0
  5 35  1  0  0  0  0
  6  7  1  0  0  0  0
  7  8  1  0  0  0  0
  7 36  1  0  0  0  0
  7 37  1  0  0  0  0
  8  9  1  0  0  0  0
  8 38  1  0  0  0  0
  9 10  2  0  0  0  0
  9 11  1  0  0  0  0
 11 16  2  0  0  0  0
 11 12  1  0  0  0  0
 12 13  2  0  0  0  0
 12 39  1  0  0  0  0
 13 14  1  0  0  0  0
 13 40  1  0  0  0  0
 14 15  2  0  0  0  0
 14 17  1  0  0  0  0
 15 16  1  0  0  0  0
 15 41  1  0  0  0  0
 16 42  1  0  0  0  0
 17 18  1  0  0  0  0
 17 43  1  0  0  0  0
 17 44  1  0  0  0  0
 18 19  1  0  0  0  0
 18 45  1  0  0  0  0
 19 20  2  0  0  0  0
 19 21  2  0  0  0  0
 19 22  1  0  0  0  0
 22 27  2  0  0  0  0
 22 23  1  0  0  0  0
 23 24  2  0  0  0  0
 23 46  1  0  0  0  0
 24 25  1  0  0  0  0
 24 47  1  0  0  0  0
 25 26  2  0  0  0  0
 25 29  1  0  0  0  0
 26 27  1  0  0  0  0
 26 28  1  0  0  0  0
 27 48  1  0  0  0  0
 30 31  2  0  0  0  0
 30 49  1  0  0  0  0
M  END
$$$$
ZINC16911240
 OpenBabel01252620473D

 50 52  0  0  1  0  0  0  0  0999 V2000
   -2.3207    4.4969   -0.2792 C   0  0  0  0  0  0  0  0  0  0  0  0
   -1.3667    3.4081    0.2161 C   0  0  0  0  0  0  0  0  0  0  0  0
   -2.1195    2.0804    0.3231 C   0  0  2  0  0  0  0  0  0  0  0  0
   -2.9971    2.2104    0.9564 H   0  0  0  0  0  0  0  0  0  0  0  0
   -1.2147    1.0371    0.9263 C   0  0  0  0  0  0  0  0  0  0  0  0
   -0.8246    1.1590    2.0750 O   0  0  0  0  0  0  0  0  0  0  0  0
   -0.8729    0.0710    0.2657 O   0  0  0  0  0  1  0  0  0  0  0  0
   -2.5301    1.6594   -0.9793 O   0  0  0  0  0  0  0  0  0  0  0  0
   -3.5861    0.8098   -1.0477 C   0  0  0  0  0  0  0  0  0  0  0  0
   -4.2654    0.4492    0.1050 C   0  0  0  0  0  0  0  0  0  0  0  0
   -5.3404   -0.4157    0.0343 C   0  0  0  0  0  0  0  0  0  0  0  0
   -5.7491   -0.9299   -1.1859 C   0  0  0  0  0  0  0  0  0  0  0  0
   -5.0872   -0.5838   -2.3433 C   0  0  0  0  0  0  0  0  0  0  0  0
   -3.9996    0.2962   -2.2880 C   0  0  0  0  0  0  0  0  0  0  0  0
   -3.2924    0.6746   -3.5171 C   0  0  0  0  0  0  0  0  0  0  0  0
   -3.9942    0.9627   -4.6427 C   0  0  0  0  0  0  0  0  0  0  0  0
   -5.4537    1.1297   -4.8344 C   0  0  0  0  0  0  0  0  0  0  0  0
   -6.2421    1.0135   -3.9097 O   0  0  0  0  0  0  0  0  0  0  0  0
   -5.8531    1.4103   -6.0551 N   0  0  0  0  0  0  0  0  0  0  0  0
   -5.0089    1.5394   -7.0665 C   0  0  0  0  0  0  0  0  0  0  0  0
   -3.4162    1.2551   -6.3098 S   0  0  0  0  0  0  0  0  0  0  0  0
   -5.2889    1.8268   -8.3769 N   0  0  0  0  0  2  0  0  0  0  0  0
   -6.5977    2.1412   -8.7602 C   0  0  0  0  0  0  0  0  0  0  0  0
   -7.4397    2.8046   -7.8768 C   0  0  0  0  0  0  0  0  0  0  0  0
   -8.7306    3.1145   -8.2549 C   0  0  0  0  0  0  0  0  0  0  0  0
   -9.1875    2.7632   -9.5184 C   0  0  0  0  0  0  0  0  0  0  0  0
   -8.3457    2.0999  -10.4017 C   0  0  0  0  0  0  0  0  0  0  0  0
   -7.0530    1.7949  -10.0259 C   0  0  0  0  0  0  0  0  0  0  0  0
  -10.4977    3.0774   -9.9018 N   0  0  0  0  0  0  0  0  0  0  0  0
  -11.1786    2.2477  -10.7169 C   0  0  0  0  0  0  0  0  0  0  0  0
  -10.6933    1.1852  -11.0437 O   0  0  0  0  0  0  0  0  0  0  0  0
  -12.5430    2.6401  -11.2223 C   0  0  0  0  0  0  0  0  0  0  0  0
   -1.7843    5.4427   -0.3554 H   0  0  0  0  0  0  0  0  0  0  0  0
   -2.7104    4.2202   -1.2588 H   0  0  0  0  0  0  0  0  0  0  0  0
   -3.1469    4.6033    0.4237 H   0  0  0  0  0  0  0  0  0  0  0  0
   -0.5405    3.3016   -0.4868 H   0  0  0  0  0  0  0  0  0  0  0  0
   -0.9769    3.6847    1.1957 H   0  0  0  0  0  0  0  0  0  0  0  0
   -3.9537    0.8447    1.0604 H   0  0  0  0  0  0  0  0  0  0  0  0
   -5.8656   -0.6934    0.9362 H   0  0  0  0  0  0  0  0  0  0  0  0
   -6.5905   -1.6056   -1.2297 H   0  0  0  0  0  0  0  0  0  0  0  0
   -5.4088   -0.9876   -3.2919 H   0  0  0  0  0  0  0  0  0  0  0  0
   -2.2135    0.7238   -3.5259 H   0  0  0  0  0  0  0  0  0  0  0  0
   -7.0846    3.0775   -6.8941 H   0  0  0  0  0  0  0  0  0  0  0  0
   -9.3854    3.6300   -7.5680 H   0  0  0  0  0  0  0  0  0  0  0  0
   -8.7012    1.8267  -11.3842 H   0  0  0  0  0  0  0  0  0  0  0  0
   -6.3969    1.2834  -10.7146 H   0  0  0  0  0  0  0  0  0  0  0  0
  -10.9148    3.8921   -9.5806 H   0  0  0  0  0  0  0  0  0  0  0  0
  -12.4402    3.1834  -12.1616 H   0  0  0  0  0  0  0  0  0  0  0  0
  -13.1419    1.7439  -11.3846 H   0  0  0  0  0  0  0  0  0  0  0  0
  -13.0339    3.2767  -10.4862 H   0  0  0  0  0  0  0  0  0  0  0  0
  1  2  1  0  0  0  0
  1 33  1  0  0  0  0
  1 34  1  0  0  0  0
  1 35  1  0  0  0  0
  2  3  1  0  0  0  0
  2 36  1  0  0  0  0
  2 37  1  0  0  0  0
  3  4  1  1  0  0  0
  3  5  1  0  0  0  0
  3  8  1  0  0  0  0
  5  6  2  0  0  0  0
  5  7  1  0  0  0  0
  8  9  1  0  0  0  0
  9 14  2  0  0  0  0
  9 10  1  0  0  0  0
 10 11  2  0  0  0  0
 10 38  1  0  0  0  0
 11 12  1  0  0  0  0
 11 39  1  0  0  0  0
 12 13  2  0  0  0  0
 12 40  1  0  0  0  0
 13 14  1  0  0  0  0
 13 41  1  0  0  0  0
 14 15  1  0  0  0  0
 15 16  2  0  0  0  0
 15 42  1  0  0  0  0
 16 21  1  0  0  0  0
 16 17  1  0  0  0  0
 17 18  2  0  0  0  0
 17 19  1  0  0  0  0
 19 20  2  0  0  0  0
 20 21  1  0  0  0  0
 20 22  1  0  0  0  0
 22 23  1  0  0  0  0
 23 28  2  0  0  0  0
 23 24  1  0  0  0  0
 24 25  2  0  0  0  0
 24 43  1  0  0  0  0
 25 26  1  0  0  0  0
 25 44  1  0  0  0  0
 26 27  2  0  0  0  0
 26 29  1  0  0  0  0
 27 28  1  0  0  0  0
 27 45  1  0  0  0  0
 28 46  1  0  0  0  0
 29 30  1  0  0  0  0
 29 47  1  0  0  0  0
 30 31  2  0  0  0  0
 30 32  1  0  0  0  0
 32 48  1  0  0  0  0
 32 49  1  0  0  0  0
 32 50  1  0  0  0  0
M  END
$$$$
ZINC39668013
 OpenBabel01252620473D

 59 61  0  0  1  0  0  0  0  0999 V2000
    0.2810    1.6621    0.5091 C   0  0  0  0  0  0  0  0  0  0  0  0
    0.1157    0.1676    0.4078 C   0  0  0  0  0  0  0  0  0  0  0  0
   -0.0329   -0.4284   -0.8311 C   0  0  0  0  0  0  0  0  0  0  0  0
   -0.1853   -1.7994   -0.9285 C   0  0  0  0  0  0  0  0  0  0  0  0
   -0.1892   -2.5781    0.2120 C   0  0  0  0  0  0  0  0  0  0  0  0
   -0.0397   -1.9826    1.4581 C   0  0  0  0  0  0  0  0  0  0  0  0
    0.1183   -0.6057    1.5520 C   0  0  0  0  0  0  0  0  0  0  0  0
   -0.0432   -2.7672    2.6137 N   0  0  0  0  0  0  0  0  0  0  0  0
   -0.1865   -4.2270    2.6912 C   0  0  2  0  0  0  0  0  0  0  0  0
   -1.1446   -4.5284    2.2676 H   0  0  0  0  0  0  0  0  0  0  0  0
   -0.1284   -4.6064    4.1474 C   0  0  0  0  0  0  0  0  0  0  0  0
    0.0319   -3.5145    4.8892 C   0  0  0  0  0  0  0  0  0  0  0  0
    0.1020   -2.3017    3.9993 C   0  0  2  0  0  0  0  0  0  0  0  0
    1.0634   -1.8032    4.1239 H   0  0  0  0  0  0  0  0  0  0  0  0
   -1.0351   -1.3387    4.3464 C   0  0  0  0  0  0  0  0  0  0  0  0
    0.1300   -3.4949    6.3484 C   0  0  0  0  0  0  0  0  0  0  0  0
   -0.0324   -4.5174    6.9811 O   0  0  0  0  0  0  0  0  0  0  0  0
    0.4327   -2.2048    7.0660 C   0  0  0  0  0  0  0  0  0  0  0  0
    0.6618   -2.5360    8.8347 S   0  0  0  0  0  0  0  0  0  0  0  0
    1.0035   -0.9511    9.5245 C   0  0  0  0  0  0  0  0  0  0  0  0
    1.0290    0.1085    8.7285 N   0  0  0  0  0  0  0  0  0  0  0  0
    1.2834    1.3158    9.2175 C   0  0  0  0  0  0  0  0  0  0  0  0
    1.3082    2.3967    8.4007 O   0  5  0  0  0  0  0  0  0  0  0  0
    1.5245    1.4565   10.5838 C   0  0  0  0  0  0  0  0  0  0  0  0
    1.4890    0.3271   11.3799 C   0  0  0  0  0  0  0  0  0  0  0  0
    1.2235   -0.8468   10.8272 N   0  0  0  0  0  0  0  0  0  0  0  0
    1.7439    0.4313   12.8615 C   0  0  0  0  0  0  0  0  0  0  0  0
    1.8178    2.8095   11.1790 C   0  0  0  0  0  0  0  0  0  0  0  0
    0.5075    3.4729   11.6080 C   0  0  0  0  0  0  0  0  0  0  0  0
    0.8008    4.8260   12.2031 C   0  0  0  0  0  0  0  0  0  0  0  0
    1.9512    5.2229   12.2773 O   0  0  0  0  0  0  0  0  0  0  0  0
   -0.1123    5.5237   12.6105 O   0  0  0  0  0  1  0  0  0  0  0  0
    0.9548   -4.9029    1.9285 C   0  0  0  0  0  0  0  0  0  0  0  0
   -0.3478   -2.4444   -2.2808 C   0  0  0  0  0  0  0  0  0  0  0  0
    1.3401    1.9148    0.4584 H   0  0  0  0  0  0  0  0  0  0  0  0
   -0.2471    2.1427   -0.3144 H   0  0  0  0  0  0  0  0  0  0  0  0
   -0.1305    2.0098    1.4567 H   0  0  0  0  0  0  0  0  0  0  0  0
   -0.0302    0.1783   -1.7246 H   0  0  0  0  0  0  0  0  0  0  0  0
   -0.3086   -3.6487    0.1353 H   0  0  0  0  0  0  0  0  0  0  0  0
    0.2388   -0.1401    2.5190 H   0  0  0  0  0  0  0  0  0  0  0  0
   -0.2058   -5.6129    4.5312 H   0  0  0  0  0  0  0  0  0  0  0  0
   -1.9810   -1.8804    4.3520 H   0  0  0  0  0  0  0  0  0  0  0  0
   -0.8578   -0.9071    5.3314 H   0  0  0  0  0  0  0  0  0  0  0  0
   -1.0768   -0.5426    3.6030 H   0  0  0  0  0  0  0  0  0  0  0  0
    1.3434   -1.7668    6.6574 H   0  0  0  0  0  0  0  0  0  0  0  0
   -0.3967   -1.5106    6.9308 H   0  0  0  0  0  0  0  0  0  0  0  0
    0.8013    0.6026   13.3813 H   0  0  0  0  0  0  0  0  0  0  0  0
    2.1927   -0.4955   13.2190 H   0  0  0  0  0  0  0  0  0  0  0  0
    2.4222    1.2621   13.0560 H   0  0  0  0  0  0  0  0  0  0  0  0
    2.4667    2.6918   12.0469 H   0  0  0  0  0  0  0  0  0  0  0  0
    2.3146    3.4334   10.4359 H   0  0  0  0  0  0  0  0  0  0  0  0
   -0.1413    3.5906   10.7401 H   0  0  0  0  0  0  0  0  0  0  0  0
    0.0108    2.8491   12.3511 H   0  0  0  0  0  0  0  0  0  0  0  0
    1.9085   -4.6112    2.3683 H   0  0  0  0  0  0  0  0  0  0  0  0
    0.8421   -5.9853    1.9902 H   0  0  0  0  0  0  0  0  0  0  0  0
    0.9267   -4.5937    0.8836 H   0  0  0  0  0  0  0  0  0  0  0  0
    0.6325   -2.7082   -2.6777 H   0  0  0  0  0  0  0  0  0  0  0  0
   -0.9546   -3.3446   -2.1834 H   0  0  0  0  0  0  0  0  0  0  0  0
   -0.8388   -1.7469   -2.9594 H   0  0  0  0  0  0  0  0  0  0  0  0
  1  2  1  0  0  0  0
  1 35  1  0  0  0  0
  1 36  1  0  0  0  0
  1 37  1  0  0  0  0
  2  7  2  0  0  0  0
  2  3  1  0  0  0  0
  3  4  2  0  0  0  0
  3 38  1  0  0  0  0
  4  5  1  0  0  0  0
  4 34  1  0  0  0  0
  5  6  2  0  0  0  0
  5 39  1  0  0  0  0
  6  7  1  0  0  0  0
  6  8  1  0  0  0  0
  7 40  1  0  0  0  0
  8 13  1  0  0  0  0
  8  9  1  0  0  0  0
  9 10  1  6  0  0  0
  9 11  1  0  0  0  0
  9 33  1  0  0  0  0
 11 12  2  0  0  0  0
 11 41  1  0  0  0  0
 12 13  1  0  0  0  0
 12 16  1  0  0  0  0
 13 14  1  1  0  0  0
 13 15  1  0  0  0  0
 15 42  1  0  0  0  0
 15 43  1  0  0  0  0
 15 44  1  0  0  0  0
 16 17  2  0  0  0  0
 16 18  1  0  0  0  0
 18 19  1  0  0  0  0
 18 45  1  0  0  0  0
 18 46  1  0  0  0  0
 19 20  1  0  0  0  0
 20 26  2  0  0  0  0
 20 21  1  0  0  0  0
 21 22  2  0  0  0  0
 22 23  1  0  0  0  0
 22 24  1  0  0  0  0
 24 25  2  0  0  0  0
 24 28  1  0  0  0  0
 25 26  1  0  0  0  0
 25 27  1  0  0  0  0
 27 47  1  0  0  0  0
 27 48  1  0  0  0  0
 27 49  1  0  0  0  0
 28 29  1  0  0  0  0
 28 50  1  0  0  0  0
 28 51  1  0  0  0  0
 29 30  1  0  0  0  0
 29 52  1  0  0  0  0
 29 53  1  0  0  0  0
 30 31  2  0  0  0  0
 30 32  1  0  0  0  0
 33 54  1  0  0  0  0
 33 55  1  0  0  0  0
 33 56  1  0  0  0  0
 34 57  1  0  0  0  0
 34 58  1  0  0  0  0
 34 59  1  0  0  0  0
M  CHG  1  23  -1
M  END
$$$$
ZINC13092989
 OpenBabel01252620473D

 43 44  0  0  0  0  0  0  0  0999 V2000
   -0.0184    1.5028    0.0103 C   0  0  0  0  0  0  0  0  0  0  0  0
    0.0021   -0.0041    0.0020 C   0  0  0  0  0  0  0  0  0  0  0  0
    0.0080   -0.7767   -1.0972 C   0  0  0  0  0  0  0  0  0  0  0  0
    0.0298   -2.1675   -0.6251 C   0  0  0  0  0  0  0  0  0  0  0  0
    0.0350   -2.0982    0.7554 C   0  0  0  0  0  0  0  0  0  0  0  0
    0.0234   -0.8010    1.1099 N   0  0  0  0  0  0  0  0  0  0  0  0
    0.0291   -0.3120    2.4909 C   0  0  0  0  0  0  0  0  0  0  0  0
   -1.4112   -0.1628    2.9850 C   0  0  0  0  0  0  0  0  0  0  0  0
   -2.0532   -1.4047    2.9326 F   0  0  0  0  0  0  0  0  0  0  0  0
   -1.4058    0.3041    4.3038 F   0  0  0  0  0  0  0  0  0  0  0  0
   -2.0916    0.7487    2.1704 F   0  0  0  0  0  0  0  0  0  0  0  0
    0.0558   -3.2726    1.6995 C   0  0  0  0  0  0  0  0  0  0  0  0
    0.0432   -3.3789   -1.4480 C   0  0  0  0  0  0  0  0  0  0  0  0
    0.0605   -4.4711   -0.9197 O   0  0  0  0  0  0  0  0  0  0  0  0
    0.0354   -3.2688   -2.9510 C   0  0  0  0  0  0  0  0  0  0  0  0
    0.0555   -4.9302   -3.6790 S   0  0  0  0  0  0  0  0  0  0  0  0
    0.0442   -4.6346   -5.4160 C   0  0  0  0  0  0  0  0  0  0  0  0
    0.0550   -5.6621   -6.2566 N   0  0  0  0  0  0  0  0  0  0  0  0
    0.0464   -5.4332   -7.5653 C   0  0  0  0  0  0  0  0  0  0  0  0
    0.0566   -6.4624   -8.4469 O   0  5  0  0  0  0  0  0  0  0  0  0
    0.0262   -4.1119   -8.0141 C   0  0  0  0  0  0  0  0  0  0  0  0
    0.0163   -3.1315   -7.1307 N   0  0  0  0  0  0  0  0  0  0  0  0
    0.0196   -3.3871   -5.8692 N   0  0  0  0  0  0  0  0  0  0  0  0
    0.0164   -3.8082   -9.4902 C   0  0  0  0  0  0  0  0  0  0  0  0
   -1.4293   -3.7256   -9.9842 C   0  0  0  0  0  0  0  0  0  0  0  0
   -1.4391   -3.4219  -11.4603 C   0  0  0  0  0  0  0  0  0  0  0  0
   -0.3873   -3.2843  -12.0614 O   0  0  0  0  0  0  0  0  0  0  0  0
   -2.4988   -3.3139  -12.0534 O   0  0  0  0  0  1  0  0  0  0  0  0
    1.0042    1.8801    0.0026 H   0  0  0  0  0  0  0  0  0  0  0  0
   -0.5455    1.8639   -0.8728 H   0  0  0  0  0  0  0  0  0  0  0  0
   -0.5286    1.8543    0.9071 H   0  0  0  0  0  0  0  0  0  0  0  0
   -0.0018   -0.4417   -2.1239 H   0  0  0  0  0  0  0  0  0  0  0  0
    0.5592   -1.0222    3.1256 H   0  0  0  0  0  0  0  0  0  0  0  0
    0.5293    0.6555    2.5317 H   0  0  0  0  0  0  0  0  0  0  0  0
    1.0884   -3.5410    1.9229 H   0  0  0  0  0  0  0  0  0  0  0  0
   -0.4581   -3.0056    2.6229 H   0  0  0  0  0  0  0  0  0  0  0  0
   -0.4478   -4.1207    1.2356 H   0  0  0  0  0  0  0  0  0  0  0  0
   -0.8633   -2.7422   -3.2721 H   0  0  0  0  0  0  0  0  0  0  0  0
    0.9165   -2.7176   -3.2795 H   0  0  0  0  0  0  0  0  0  0  0  0
    0.5163   -2.8562   -9.6686 H   0  0  0  0  0  0  0  0  0  0  0  0
    0.5393   -4.5995  -10.0274 H   0  0  0  0  0  0  0  0  0  0  0  0
   -1.9292   -4.6777   -9.8059 H   0  0  0  0  0  0  0  0  0  0  0  0
   -1.9522   -2.9344   -9.4470 H   0  0  0  0  0  0  0  0  0  0  0  0
  1  2  1  0  0  0  0
  1 29  1  0  0  0  0
  1 30  1  0  0  0  0
  1 31  1  0  0  0  0
  2  6  1  0  0  0  0
  2  3  2  0  0  0  0
  3  4  1  0  0  0  0
  3 32  1  0  0  0  0
  4  5  2  0  0  0  0
  4 13  1  0  0  0  0
  5  6  1  0  0  0  0
  5 12  1  0  0  0  0
  6  7  1  0  0  0  0
  7  8  1  0  0  0  0
  7 33  1  0  0  0  0
  7 34  1  0  0  0  0
  8  9  1  0  0  0  0
  8 10  1  0  0  0  0
  8 11  1  0  0  0  0
 12 35  1  0  0  0  0
 12 36  1  0  0  0  0
 12 37  1  0  0  0  0
 13 14  2  0  0  0  0
 13 15  1  0  0  0  0
 15 16  1  0  0  0  0
 15 38  1  0  0  0  0
 15 39  1  0  0  0  0
 16 17  1  0  0  0  0
 17 18  2  0  0  0  0
 17 23  1  0  0  0  0
 18 19  1  0  0  0  0
 19 20  1  0  0  0  0
 19 21  2  0  0  0  0
 21 22  1  0  0  0  0
 21 24  1  0  0  0  0
 22 23  2  0  0  0  0
 24 25  1  0  0  0  0
 24 40  1  0  0  0  0
 24 41  1  0  0  0  0
 25 26  1  0  0  0  0
 25 42  1  0  0  0  0
 25 43  1  0  0  0  0
 26 27  2  0  0  0  0
 26 28  1  0  0  0  0
M  CHG  1  20  -1
M  END
$$$$
ZINC09872582
 OpenBabel01252620473D

 65 67  0  0  1  0  0  0  0  0999 V2000
   -8.1578    5.6676    3.3732 C   0  0  0  0  0  0  0  0  0  0  0  0
   -8.3745    5.7714    1.8622 C   0  0  0  0  0  0  0  0  0  0  0  0
   -7.4428    6.7531    1.3015 N   0  0  0  0  0  0  0  0  0  0  0  0
   -7.6722    8.1110    1.1505 C   0  0  0  0  0  0  0  0  0  0  0  0
   -8.7429    8.9429    1.4405 C   0  0  0  0  0  0  0  0  0  0  0  0
   -8.6593   10.2919    1.1631 C   0  0  0  0  0  0  0  0  0  0  0  0
   -7.5106   10.8225    0.5950 C   0  0  0  0  0  0  0  0  0  0  0  0
   -6.4378   10.0111    0.3004 C   0  0  0  0  0  0  0  0  0  0  0  0
   -6.5063    8.6430    0.5757 C   0  0  0  0  0  0  0  0  0  0  0  0
   -5.6356    7.6131    0.4102 N   0  0  0  0  0  0  0  0  0  0  0  0
   -6.1853    6.5002    0.8307 C   0  0  0  0  0  0  0  0  0  0  0  0
   -5.4150    4.9158    0.8003 S   0  0  0  0  0  0  0  0  0  0  0  0
   -3.8202    5.3557    0.0660 C   0  0  2  0  0  0  0  0  0  0  0  0
   -3.3547    6.1461    0.6547 H   0  0  0  0  0  0  0  0  0  0  0  0
   -4.0366    5.8470   -1.3667 C   0  0  0  0  0  0  0  0  0  0  0  0
   -2.9228    4.1451    0.0516 C   0  0  0  0  0  0  0  0  0  0  0  0
   -3.4054    3.0324    0.0510 O   0  0  0  0  0  0  0  0  0  0  0  0
   -1.5839    4.2989    0.0396 N   0  0  0  0  0  0  0  0  0  0  0  0
   -0.7533    3.1786    0.0263 C   0  0  0  0  0  0  0  0  0  0  0  0
   -1.1565    1.8786    0.0171 C   0  0  0  0  0  0  0  0  0  0  0  0
   -0.0126    1.0758    0.0080 C   0  0  0  0  0  0  0  0  0  0  0  0
    1.0377    1.8563    0.0021 N   0  0  0  0  0  0  0  0  0  0  0  0
    0.5993    3.1865    0.0135 N   0  0  0  0  0  0  0  0  0  0  0  0
    1.4544    4.3761    0.0124 C   0  0  0  0  0  0  0  0  0  0  0  0
    2.3493    4.3619    1.2533 C   0  0  0  0  0  0  0  0  0  0  0  0
    2.3260    4.3765   -1.2450 C   0  0  0  0  0  0  0  0  0  0  0  0
   -7.4232   12.5478    0.2482 S   0  0  0  0  0  0  0  0  0  0  0  0
   -6.4570   12.7066   -0.7816 O   0  0  0  0  0  0  0  0  0  0  0  0
   -8.7624   13.0032    0.1131 O   0  0  0  0  0  0  0  0  0  0  0  0
   -6.8053   13.2872    1.5950 N   0  0  0  0  0  0  0  0  0  0  0  0
   -5.3577   13.4632    1.7349 C   0  0  0  0  0  0  0  0  0  0  0  0
   -4.9627   14.8550    1.2369 C   0  0  0  0  0  0  0  0  0  0  0  0
   -7.7064   13.7654    2.6465 C   0  0  0  0  0  0  0  0  0  0  0  0
   -7.8299   12.6987    3.7363 C   0  0  0  0  0  0  0  0  0  0  0  0
   -7.1338    5.3518    3.5725 H   0  0  0  0  0  0  0  0  0  0  0  0
   -8.3342    6.6400    3.8331 H   0  0  0  0  0  0  0  0  0  0  0  0
   -8.8510    4.9372    3.7904 H   0  0  0  0  0  0  0  0  0  0  0  0
   -9.3985    6.0872    1.6628 H   0  0  0  0  0  0  0  0  0  0  0  0
   -8.1981    4.7990    1.4022 H   0  0  0  0  0  0  0  0  0  0  0  0
   -9.6404    8.5358    1.8822 H   0  0  0  0  0  0  0  0  0  0  0  0
   -9.4939   10.9389    1.3894 H   0  0  0  0  0  0  0  0  0  0  0  0
   -5.5462   10.4309   -0.1415 H   0  0  0  0  0  0  0  0  0  0  0  0
   -4.6857    6.7226   -1.3564 H   0  0  0  0  0  0  0  0  0  0  0  0
   -3.0762    6.1119   -1.8090 H   0  0  0  0  0  0  0  0  0  0  0  0
   -4.5021    5.0566   -1.9555 H   0  0  0  0  0  0  0  0  0  0  0  0
   -1.1979    5.1888    0.0401 H   0  0  0  0  0  0  0  0  0  0  0  0
   -2.1786    1.5296    0.0195 H   0  0  0  0  0  0  0  0  0  0  0  0
    0.0021   -0.0041    0.0020 H   0  0  0  0  0  0  0  0  0  0  0  0
    0.8321    5.2709    0.0234 H   0  0  0  0  0  0  0  0  0  0  0  0
    2.9716    3.4671    1.2423 H   0  0  0  0  0  0  0  0  0  0  0  0
    2.9855    5.2470    1.2526 H   0  0  0  0  0  0  0  0  0  0  0  0
    1.7283    4.3616    2.1491 H   0  0  0  0  0  0  0  0  0  0  0  0
    1.6885    4.3866   -2.1290 H   0  0  0  0  0  0  0  0  0  0  0  0
    2.9622    5.2615   -1.2458 H   0  0  0  0  0  0  0  0  0  0  0  0
    2.9483    3.4817   -1.2560 H   0  0  0  0  0  0  0  0  0  0  0  0
   -5.0788   13.3598    2.7835 H   0  0  0  0  0  0  0  0  0  0  0  0
   -4.8410   12.7061    1.1451 H   0  0  0  0  0  0  0  0  0  0  0  0
   -5.2416   14.9584    0.1883 H   0  0  0  0  0  0  0  0  0  0  0  0
   -5.4794   15.6121    1.8267 H   0  0  0  0  0  0  0  0  0  0  0  0
   -3.8856   14.9859    1.3411 H   0  0  0  0  0  0  0  0  0  0  0  0
   -7.3057   14.6821    3.0791 H   0  0  0  0  0  0  0  0  0  0  0  0
   -8.6895   13.9644    2.2198 H   0  0  0  0  0  0  0  0  0  0  0  0
   -8.2306   11.7819    3.3036 H   0  0  0  0  0  0  0  0  0  0  0  0
   -6.8469   12.4996    4.1630 H   0  0  0  0  0  0  0  0  0  0  0  0
   -8.5003   13.0544    4.5186 H   0  0  0  0  0  0  0  0  0  0  0  0
  1  2  1  0  0  0  0
  1 35  1  0  0  0  0
  1 36  1  0  0  0  0
  1 37  1  0  0  0  0
  2  3  1  0  0  0  0
  2 38  1  0  0  0  0
  2 39  1  0  0  0  0
  3 11  1  0  0  0  0
  3  4  1  0  0  0  0
  4  9  2  0  0  0  0
  4  5  1  0  0  0  0
  5  6  2  0  0  0  0
  5 40  1  0  0  0  0
  6  7  1  0  0  0  0
  6 41  1  0  0  0  0
  7  8  2  0  0  0  0
  7 27  1  0  0  0  0
  8  9  1  0  0  0  0
  8 42  1  0  0  0  0
  9 10  1  0  0  0  0
 10 11  2  0  0  0  0
 11 12  1  0  0  0  0
 12 13  1  0  0  0  0
 13 14  1  1  0  0  0
 13 15  1  0  0  0  0
 13 16  1  0  0  0  0
 15 43  1  0  0  0  0
 15 44  1  0  0  0  0
 15 45  1  0  0  0  0
 16 17  2  0  0  0  0
 16 18  1  0  0  0  0
 18 19  1  0  0  0  0
 18 46  1  0  0  0  0
 19 23  1  0  0  0  0
 19 20  2  0  0  0  0
 20 21  1  0  0  0  0
 20 47  1  0  0  0  0
 21 22  2  0  0  0  0
 21 48  1  0  0  0  0
 22 23  1  0  0  0  0
 23 24  1  0  0  0  0
 24 25  1  0  0  0  0
 24 26  1  0  0  0  0
 24 49  1  0  0  0  0
 25 50  1  0  0  0  0
 25 51  1  0  0  0  0
 25 52  1  0  0  0  0
 26 53  1  0  0  0  0
 26 54  1  0  0  0  0
 26 55  1  0  0  0  0
 27 28  2  0  0  0  0
 27 29  2  0  0  0  0
 27 30  1  0  0  0  0
 30 31  1  0  0  0  0
 30 33  1  0  0  0  0
 31 32  1  0  0  0  0
 31 56  1  0  0  0  0
 31 57  1  0  0  0  0
 32 58  1  0  0  0  0
 32 59  1  0  0  0  0
 32 60  1  0  0  0  0
 33 34  1  0  0  0  0
 33 61  1  0  0  0  0
 33 62  1  0  0  0  0
 34 63  1  0  0  0  0
 34 64  1  0  0  0  0
 34 65  1  0  0  0  0
M  END
$$$$
ZINC13301450
 OpenBabel01252620473D

 43 44  0  0  0  0  0  0  0  0999 V2000
   -0.5027    6.3737   -6.4243 C   0  0  0  0  0  0  0  0  0  0  0  0
    0.0960    5.6351   -7.6230 C   0  0  0  0  0  0  0  0  0  0  0  0
    0.7033    6.6485   -8.5951 C   0  0  0  0  0  0  0  0  0  0  0  0
   -1.0024    4.8417   -8.3337 C   0  0  0  0  0  0  0  0  0  0  0  0
    1.1394    4.7171   -7.1596 N   0  0  0  0  0  0  0  0  0  0  0  0
    0.7759    3.5427   -6.0501 S   0  0  0  0  0  0  0  0  0  0  0  0
    1.9762    2.8186   -5.8171 O   0  0  0  0  0  0  0  0  0  0  0  0
   -0.4174    2.9152   -6.4991 O   0  0  0  0  0  0  0  0  0  0  0  0
    0.3785    4.3581   -4.5396 C   0  0  0  0  0  0  0  0  0  0  0  0
   -0.9411    4.4674   -4.1400 C   0  0  0  0  0  0  0  0  0  0  0  0
   -1.2574    5.1069   -2.9556 C   0  0  0  0  0  0  0  0  0  0  0  0
   -0.2558    5.6393   -2.1676 C   0  0  0  0  0  0  0  0  0  0  0  0
    1.0704    5.5314   -2.5658 C   0  0  0  0  0  0  0  0  0  0  0  0
    1.3843    4.8924   -3.7589 C   0  0  0  0  0  0  0  0  0  0  0  0
    2.0857    6.0691   -1.7716 N   0  0  0  0  0  0  0  0  0  0  0  0
    2.0731    5.8245   -0.1338 S   0  0  0  0  0  0  0  0  0  0  0  0
    0.7638    6.1463    0.3149 O   0  0  0  0  0  0  0  0  0  0  0  0
    3.2333    6.4632    0.3812 O   0  0  0  0  0  0  0  0  0  0  0  0
    2.2876    4.0966    0.1365 C   0  0  0  0  0  0  0  0  0  0  0  0
    3.4357    3.4096    0.2936 C   0  0  0  0  0  0  0  0  0  0  0  0
    3.3261    1.9873    0.5027 C   0  0  0  0  0  0  0  0  0  0  0  0
    2.0535    1.4531    0.5239 C   0  0  0  0  0  0  0  0  0  0  0  0
    1.0393    2.8332    0.2687 S   0  0  0  0  0  0  0  0  0  0  0  0
    4.5164    1.1438    0.6858 C   0  0  0  0  0  0  0  0  0  0  0  0
    5.6245    1.6431    0.6627 O   0  0  0  0  0  0  0  0  0  0  0  0
    0.3004    6.7874   -5.8144 H   0  0  0  0  0  0  0  0  0  0  0  0
   -1.1433    7.1815   -6.7782 H   0  0  0  0  0  0  0  0  0  0  0  0
   -1.0917    5.6783   -5.8263 H   0  0  0  0  0  0  0  0  0  0  0  0
    1.1298    6.1223   -9.4491 H   0  0  0  0  0  0  0  0  0  0  0  0
   -0.0730    7.3316   -8.9399 H   0  0  0  0  0  0  0  0  0  0  0  0
    1.4858    7.2137   -8.0888 H   0  0  0  0  0  0  0  0  0  0  0  0
   -1.5427    4.2367   -7.6055 H   0  0  0  0  0  0  0  0  0  0  0  0
   -1.6939    5.5317   -8.8173 H   0  0  0  0  0  0  0  0  0  0  0  0
   -0.5532    4.1916   -9.0845 H   0  0  0  0  0  0  0  0  0  0  0  0
    2.0432    4.7972   -7.5026 H   0  0  0  0  0  0  0  0  0  0  0  0
   -1.7263    4.0525   -4.7547 H   0  0  0  0  0  0  0  0  0  0  0  0
   -2.2889    5.1904   -2.6465 H   0  0  0  0  0  0  0  0  0  0  0  0
   -0.5036    6.1393   -1.2429 H   0  0  0  0  0  0  0  0  0  0  0  0
    2.4142    4.8106   -4.0736 H   0  0  0  0  0  0  0  0  0  0  0  0
    2.7982    6.5859   -2.1793 H   0  0  0  0  0  0  0  0  0  0  0  0
    4.3962    3.9027    0.2644 H   0  0  0  0  0  0  0  0  0  0  0  0
    1.7610    0.4231    0.6657 H   0  0  0  0  0  0  0  0  0  0  0  0
    4.3789   -0.1831    0.8792 O   0  0  0  0  0  1  0  0  0  0  0  0
  1  2  1  0  0  0  0
  1 26  1  0  0  0  0
  1 27  1  0  0  0  0
  1 28  1  0  0  0  0
  2  3  1  0  0  0  0
  2  4  1  0  0  0  0
  2  5  1  0  0  0  0
  3 29  1  0  0  0  0
  3 30  1  0  0  0  0
  3 31  1  0  0  0  0
  4 32  1  0  0  0  0
  4 33  1  0  0  0  0
  4 34  1  0  0  0  0
  5  6  1  0  0  0  0
  5 35  1  0  0  0  0
  6  7  2  0  0  0  0
  6  8  2  0  0  0  0
  6  9  1  0  0  0  0
  9 14  2  0  0  0  0
  9 10  1  0  0  0  0
 10 11  2  0  0  0  0
 10 36  1  0  0  0  0
 11 12  1  0  0  0  0
 11 37  1  0  0  0  0
 12 13  2  0  0  0  0
 12 38  1  0  0  0  0
 13 14  1  0  0  0  0
 13 15  1  0  0  0  0
 14 39  1  0  0  0  0
 15 16  1  0  0  0  0
 15 40  1  0  0  0  0
 16 17  2  0  0  0  0
 16 18  2  0  0  0  0
 16 19  1  0  0  0  0
 19 23  1  0  0  0  0
 19 20  2  0  0  0  0
 20 21  1  0  0  0  0
 20 41  1  0  0  0  0
 21 22  2  0  0  0  0
 21 24  1  0  0  0  0
 22 23  1  0  0  0  0
 22 42  1  0  0  0  0
 24 25  2  0  0  0  0
 24 43  1  0  0  0  0
M  END
$$$$
ZINC55589907
 OpenBabel01252620473D

 34 35  0  0  0  0  0  0  0  0999 V2000
   -0.0169    1.3930    0.0097 C   0  0  0  0  0  0  0  0  0  0  0  0
    1.1700    2.0954    0.0021 C   0  0  0  0  0  0  0  0  0  0  0  0
    2.3776    1.4198   -0.0135 C   0  0  0  0  0  0  0  0  0  0  0  0
    2.4041    0.0362   -0.0212 C   0  0  0  0  0  0  0  0  0  0  0  0
    1.2251   -0.6794   -0.0133 C   0  0  0  0  0  0  0  0  0  0  0  0
    0.0021   -0.0041    0.0020 C   0  0  0  0  0  0  0  0  0  0  0  0
   -1.2634   -0.7626    0.0105 C   0  0  0  0  0  0  0  0  0  0  0  0
   -2.3322   -0.1685    0.0243 O   0  0  0  0  0  0  0  0  0  0  0  0
   -1.2434   -1.9853    0.0038 O   0  0  0  0  0  1  0  0  0  0  0  0
    3.8889    2.3257   -0.0242 S   0  0  0  0  0  0  0  0  0  0  0  0
    4.8718    1.4691   -0.5893 O   0  0  0  0  0  0  0  0  0  0  0  0
    3.5915    3.6054   -0.5656 O   0  0  0  0  0  0  0  0  0  0  0  0
    4.3249    2.5694    1.5547 N   0  0  0  0  0  2  0  0  0  0  0  0
    5.4987    3.2695    1.8565 C   0  0  0  0  0  0  0  0  0  0  0  0
    6.2953    3.7650    0.8345 C   0  0  0  0  0  0  0  0  0  0  0  0
    7.4540    4.4560    1.1351 C   0  0  0  0  0  0  0  0  0  0  0  0
    7.8219    4.6552    2.4529 C   0  0  0  0  0  0  0  0  0  0  0  0
    7.0330    4.1638    3.4768 C   0  0  0  0  0  0  0  0  0  0  0  0
    5.8672    3.4757    3.1841 C   0  0  0  0  0  0  0  0  0  0  0  0
    5.0869    2.9975    4.1903 O   0  0  0  0  0  0  0  0  0  0  0  0
    5.5271    3.2464    5.5269 C   0  0  0  0  0  0  0  0  0  0  0  0
    6.7856    2.6664    5.7190 F   0  0  0  0  0  0  0  0  0  0  0  0
    5.6121    4.6264    5.7405 F   0  0  0  0  0  0  0  0  0  0  0  0
    8.3031    4.9836    0.0437 N   0  0  0  0  0  4  0  0  0  0  0  0
    7.9830    4.8099   -1.1091 O   0  0  0  0  0  0  0  0  0  0  0  0
    9.3169    5.5882    0.3050 O   0  5  0  0  0  0  0  0  0  0  0  0
   -0.9586    1.9215    0.0260 H   0  0  0  0  0  0  0  0  0  0  0  0
    1.1569    3.1753    0.0081 H   0  0  0  0  0  0  0  0  0  0  0  0
    3.3502   -0.4844   -0.0337 H   0  0  0  0  0  0  0  0  0  0  0  0
    1.2472   -1.7591   -0.0197 H   0  0  0  0  0  0  0  0  0  0  0  0
    6.0103    3.6105   -0.1957 H   0  0  0  0  0  0  0  0  0  0  0  0
    8.7281    5.1957    2.6831 H   0  0  0  0  0  0  0  0  0  0  0  0
    7.3236    4.3208    4.5051 H   0  0  0  0  0  0  0  0  0  0  0  0
    4.8160    2.8130    6.2302 H   0  0  0  0  0  0  0  0  0  0  0  0
  1  6  2  0  0  0  0
  1  2  1  0  0  0  0
  1 27  1  0  0  0  0
  2  3  2  0  0  0  0
  2 28  1  0  0  0  0
  3  4  1  0  0  0  0
  3 10  1  0  0  0  0
  4  5  2  0  0  0  0
  4 29  1  0  0  0  0
  5  6  1  0  0  0  0
  5 30  1  0  0  0  0
  6  7  1  0  0  0  0
  7  8  2  0  0  0  0
  7  9  1  0  0  0  0
 10 11  2  0  0  0  0
 10 12  2  0  0  0  0
 10 13  1  0  0  0  0
 13 14  1  0  0  0  0
 14 19  2  0  0  0  0
 14 15  1  0  0  0  0
 15 16  2  0  0  0  0
 15 31  1  0  0  0  0
 16 17  1  0  0  0  0
 16 24  1  0  0  0  0
 17 18  2  0  0  0  0
 17 32  1  0  0  0  0
 18 19  1  0  0  0  0
 18 33  1  0  0  0  0
 19 20  1  0  0  0  0
 20 21  1  0  0  0  0
 21 22  1  0  0  0  0
 21 23  1  0  0  0  0
 21 34  1  0  0  0  0
 24 25  2  0  0  0  0
 24 26  1  0  0  0  0
M  CHG  1  26  -1
M  END
$$$$
ZINC66242177
 OpenBabel01252620473D

 39 40  0  0  0  0  0  0  0  0999 V2000
   -0.0178    1.4608    0.0101 C   0  0  0  0  0  0  0  0  0  0  0  0
    0.0021   -0.0041    0.0020 N   0  0  0  0  0  0  0  0  0  0  0  0
    1.2806   -0.7192   -0.0140 C   0  0  0  0  0  0  0  0  0  0  0  0
   -1.1558   -0.6938    0.0094 C   0  0  0  0  0  0  0  0  0  0  0  0
   -2.2142   -0.1017    0.0227 O   0  0  0  0  0  0  0  0  0  0  0  0
   -1.1354   -2.2006    0.0011 C   0  0  0  0  0  0  0  0  0  0  0  0
   -2.5098   -2.7077    0.0115 N   0  0  0  0  0  0  0  0  0  0  0  0
   -3.0497   -3.5755   -0.8852 C   0  0  0  0  0  0  0  0  0  0  0  0
   -4.3397   -3.7892   -0.5222 C   0  0  0  0  0  0  0  0  0  0  0  0
   -4.5941   -3.0300    0.6289 C   0  0  0  0  0  0  0  0  0  0  0  0
   -3.4993   -2.3893    0.9504 N   0  0  0  0  0  0  0  0  0  0  0  0
   -5.2595   -4.6250   -1.1840 N   0  0  0  0  0  0  0  0  0  0  0  0
   -6.2184   -5.6554   -0.3116 S   0  0  0  0  0  0  0  0  0  0  0  0
   -7.0443   -6.3329   -1.2486 O   0  0  0  0  0  0  0  0  0  0  0  0
   -5.3607   -6.3457    0.5868 O   0  0  0  0  0  0  0  0  0  0  0  0
   -7.2873   -4.6619    0.6759 C   0  0  0  0  0  0  0  0  0  0  0  0
   -6.8912   -4.2751    1.9442 C   0  0  0  0  0  0  0  0  0  0  0  0
   -7.7229   -3.4978    2.7229 C   0  0  0  0  0  0  0  0  0  0  0  0
   -8.9677   -3.1006    2.2282 C   0  0  0  0  0  0  0  0  0  0  0  0
   -9.3607   -3.4945    0.9466 C   0  0  0  0  0  0  0  0  0  0  0  0
   -8.5164   -4.2675    0.1772 C   0  0  0  0  0  0  0  0  0  0  0  0
   -9.8631   -2.2695    3.0554 C   0  0  0  0  0  0  0  0  0  0  0  0
   -9.5164   -1.9267    4.1769 O   0  0  0  0  0  0  0  0  0  0  0  0
  -10.9520   -1.9234    2.6195 O   0  0  0  0  0  1  0  0  0  0  0  0
    1.0048    1.8381    0.0023 H   0  0  0  0  0  0  0  0  0  0  0  0
   -0.5450    1.8219   -0.8730 H   0  0  0  0  0  0  0  0  0  0  0  0
   -0.5280    1.8123    0.9069 H   0  0  0  0  0  0  0  0  0  0  0  0
    1.6074   -0.9021    1.0096 H   0  0  0  0  0  0  0  0  0  0  0  0
    1.1583   -1.6705   -0.5318 H   0  0  0  0  0  0  0  0  0  0  0  0
    2.0272   -0.1171   -0.5318 H   0  0  0  0  0  0  0  0  0  0  0  0
   -0.6252   -2.5521   -0.8957 H   0  0  0  0  0  0  0  0  0  0  0  0
   -0.6082   -2.5617    0.8841 H   0  0  0  0  0  0  0  0  0  0  0  0
   -2.5441   -4.0145   -1.7326 H   0  0  0  0  0  0  0  0  0  0  0  0
   -5.5323   -2.9853    1.1620 H   0  0  0  0  0  0  0  0  0  0  0  0
   -5.3315   -4.5972   -2.1509 H   0  0  0  0  0  0  0  0  0  0  0  0
   -5.9287   -4.5829    2.3252 H   0  0  0  0  0  0  0  0  0  0  0  0
   -7.4128   -3.1973    3.7128 H   0  0  0  0  0  0  0  0  0  0  0  0
  -10.3215   -3.1910    0.5578 H   0  0  0  0  0  0  0  0  0  0  0  0
   -8.8170   -4.5690   -0.8153 H   0  0  0  0  0  0  0  0  0  0  0  0
  1  2  1  0  0  0  0
  1 25  1  0  0  0  0
  1 26  1  0  0  0  0
  1 27  1  0  0  0  0
  2  3  1  0  0  0  0
  2  4  1  0  0  0  0
  3 28  1  0  0  0  0
  3 29  1  0  0  0  0
  3 30  1  0  0  0  0
  4  5  2  0  0  0  0
  4  6  1  0  0  0  0
  6  7  1  0  0  0  0
  6 31  1  0  0  0  0
  6 32  1  0  0  0  0
  7 11  1  0  0  0  0
  7  8  1  0  0  0  0
  8  9  2  0  0  0  0
  8 33  1  0  0  0  0
  9 10  1  0  0  0  0
  9 12  1  0  0  0  0
 10 11  2  0  0  0  0
 10 34  1  0  0  0  0
 12 13  1  0  0  0  0
 12 35  1  0  0  0  0
 13 14  2  0  0  0  0
 13 15  2  0  0  0  0
 13 16  1  0  0  0  0
 16 21  2  0  0  0  0
 16 17  1  0  0  0  0
 17 18  2  0  0  0  0
 17 36  1  0  0  0  0
 18 19  1  0  0  0  0
 18 37  1  0  0  0  0
 19 20  2  0  0  0  0
 19 22  1  0  0  0  0
 20 21  1  0  0  0  0
 20 38  1  0  0  0  0
 21 39  1  0  0  0  0
 22 23  2  0  0  0  0
 22 24  1  0  0  0  0
M  END
$$$$
ZINC13248128
 OpenBabel01252620473D

 58 60  0  0  0  0  0  0  0  0999 V2000
   -0.0184    1.5028    0.0103 C   0  0  0  0  0  0  0  0  0  0  0  0
    0.0021   -0.0041    0.0020 C   0  0  0  0  0  0  0  0  0  0  0  0
    0.0057   -0.6861   -1.2023 C   0  0  0  0  0  0  0  0  0  0  0  0
    0.0239   -2.0649   -1.2176 C   0  0  0  0  0  0  0  0  0  0  0  0
    0.0392   -2.7734   -0.0133 C   0  0  0  0  0  0  0  0  0  0  0  0
    0.0359   -2.0783    1.1985 C   0  0  0  0  0  0  0  0  0  0  0  0
    0.0229   -0.6989    1.1983 C   0  0  0  0  0  0  0  0  0  0  0  0
    0.0254    0.1802    2.7254 S   0  0  0  0  0  0  0  0  0  0  0  0
   -1.0142    1.1452    2.6401 O   0  0  0  0  0  0  0  0  0  0  0  0
    0.0755   -0.7965    3.7562 O   0  0  0  0  0  0  0  0  0  0  0  0
    1.4486    1.0234    2.8026 N   0  0  0  0  0  2  0  0  0  0  0  0
    1.7288    1.8201    3.9151 C   0  0  0  0  0  0  0  0  0  0  0  0
    0.8173    1.9018    4.9602 C   0  0  0  0  0  0  0  0  0  0  0  0
    1.0978    2.6901    6.0589 C   0  0  0  0  0  0  0  0  0  0  0  0
    2.2842    3.3980    6.1192 C   0  0  0  0  0  0  0  0  0  0  0  0
    3.1937    3.3189    5.0806 C   0  0  0  0  0  0  0  0  0  0  0  0
    2.9221    2.5280    3.9815 C   0  0  0  0  0  0  0  0  0  0  0  0
    2.6374    4.4035    7.5223 S   0  0  0  0  0  0  0  0  0  0  0  0
    3.5646    5.3905    7.0916 O   0  0  0  0  0  0  0  0  0  0  0  0
    1.3865    4.7374    8.1080 O   0  0  0  0  0  0  0  0  0  0  0  0
    3.4343    3.4518    8.6185 N   0  0  0  0  0  0  0  0  0  0  0  0
    4.7596    2.9167    8.2971 C   0  0  0  0  0  0  0  0  0  0  0  0
    5.4260    2.4033    9.5751 C   0  0  0  0  0  0  0  0  0  0  0  0
    6.8102    1.8444    9.2394 C   0  0  0  0  0  0  0  0  0  0  0  0
    7.4500    1.3515   10.4664 N   0  0  0  0  0  0  0  0  0  0  0  0
    7.7413    2.4579   11.3897 C   0  0  0  0  0  0  0  0  0  0  0  0
    8.3510    1.8947   12.6762 C   0  0  0  0  0  0  0  0  0  0  0  0
    9.5204    1.1378   12.3520 O   0  0  0  0  0  0  0  0  0  0  0  0
    9.2729    0.0517   11.4551 C   0  0  0  0  0  0  0  0  0  0  0  0
    8.6726    0.5962   10.1562 C   0  0  0  0  0  0  0  0  0  0  0  0
    0.0582   -4.2487   -0.0214 C   0  0  0  0  0  0  0  0  0  0  0  0
    0.0606   -4.8543   -1.0838 O   0  0  0  0  0  0  0  0  0  0  0  0
    0.0716   -4.8658    1.0343 O   0  0  0  0  0  1  0  0  0  0  0  0
    1.0042    1.8801    0.0026 H   0  0  0  0  0  0  0  0  0  0  0  0
   -0.5455    1.8639   -0.8728 H   0  0  0  0  0  0  0  0  0  0  0  0
   -0.5286    1.8543    0.9071 H   0  0  0  0  0  0  0  0  0  0  0  0
   -0.0062   -0.1372   -2.1323 H   0  0  0  0  0  0  0  0  0  0  0  0
    0.0259   -2.5959   -2.1581 H   0  0  0  0  0  0  0  0  0  0  0  0
    0.0477   -2.6194    2.1331 H   0  0  0  0  0  0  0  0  0  0  0  0
   -0.1097    1.3497    4.9134 H   0  0  0  0  0  0  0  0  0  0  0  0
    0.3896    2.7541    6.8717 H   0  0  0  0  0  0  0  0  0  0  0  0
    4.1194    3.8731    5.1308 H   0  0  0  0  0  0  0  0  0  0  0  0
    3.6349    2.4631    3.1727 H   0  0  0  0  0  0  0  0  0  0  0  0
    3.0235    3.2487    9.4735 H   0  0  0  0  0  0  0  0  0  0  0  0
    4.6578    2.0969    7.5859 H   0  0  0  0  0  0  0  0  0  0  0  0
    5.3728    3.7040    7.8586 H   0  0  0  0  0  0  0  0  0  0  0  0
    5.5279    3.2230   10.2862 H   0  0  0  0  0  0  0  0  0  0  0  0
    4.8128    1.6160   10.0135 H   0  0  0  0  0  0  0  0  0  0  0  0
    6.7083    1.0247    8.5282 H   0  0  0  0  0  0  0  0  0  0  0  0
    7.4234    2.6317    8.8009 H   0  0  0  0  0  0  0  0  0  0  0  0
    8.4470    3.1452   10.9230 H   0  0  0  0  0  0  0  0  0  0  0  0
    6.8184    2.9875   11.6258 H   0  0  0  0  0  0  0  0  0  0  0  0
    8.6213    2.7155   13.3405 H   0  0  0  0  0  0  0  0  0  0  0  0
    7.6252    1.2492   13.1707 H   0  0  0  0  0  0  0  0  0  0  0  0
   10.2099   -0.4604   11.2363 H   0  0  0  0  0  0  0  0  0  0  0  0
    8.5739   -0.6474   11.9142 H   0  0  0  0  0  0  0  0  0  0  0  0
    8.4294   -0.2331    9.4920 H   0  0  0  0  0  0  0  0  0  0  0  0
    9.3931    1.2537    9.6698 H   0  0  0  0  0  0  0  0  0  0  0  0
  1  2  1  0  0  0  0
  1 34  1  0  0  0  0
  1 35  1  0  0  0  0
  1 36  1  0  0  0  0
  2  7  2  0  0  0  0
  2  3  1  0  0  0  0
  3  4  2  0  0  0  0
  3 37  1  0  0  0  0
  4  5  1  0  0  0  0
  4 38  1  0  0  0  0
  5  6  2  0  0  0  0
  5 31  1  0  0  0  0
  6  7  1  0  0  0  0
  6 39  1  0  0  0  0
  7  8  1  0  0  0  0
  8  9  2  0  0  0  0
  8 10  2  0  0  0  0
  8 11  1  0  0  0  0
 11 12  1  0  0  0  0
 12 17  2  0  0  0  0
 12 13  1  0  0  0  0
 13 14  2  0  0  0  0
 13 40  1  0  0  0  0
 14 15  1  0  0  0  0
 14 41  1  0  0  0  0
 15 16  2  0  0  0  0
 15 18  1  0  0  0  0
 16 17  1  0  0  0  0
 16 42  1  0  0  0  0
 17 43  1  0  0  0  0
 18 19  2  0  0  0  0
 18 20  2  0  0  0  0
 18 21  1  0  0  0  0
 21 22  1  0  0  0  0
 21 44  1  0  0  0  0
 22 23  1  0  0  0  0
 22 45  1  0  0  0  0
 22 46  1  0  0  0  0
 23 24  1  0  0  0  0
 23 47  1  0  0  0  0
 23 48  1  0  0  0  0
 24 25  1  0  0  0  0
 24 49  1  0  0  0  0
 24 50  1  0  0  0  0
 25 30  1  0  0  0  0
 25 26  1  0  0  0  0
 26 27  1  0  0  0  0
 26 51  1  0  0  0  0
 26 52  1  0  0  0  0
 27 28  1  0  0  0  0
 27 53  1  0  0  0  0
 27 54  1  0  0  0  0
 28 29  1  0  0  0  0
 29 30  1  0  0  0  0
 29 55  1  0  0  0  0
 29 56  1  0  0  0  0
 30 57  1  0  0  0  0
 30 58  1  0  0  0  0
 31 32  2  0  0  0  0
 31 33  1  0  0  0  0
M  END
$$$$
ZINC13197361
 OpenBabel01252620473D

 37 38  0  0  0  0  0  0  0  0999 V2000
   -0.5281    3.0554    4.0395 C   0  0  0  0  0  0  0  0  0  0  0  0
   -0.2989    3.1018    2.7506 C   0  0  0  0  0  0  0  0  0  0  0  0
    0.2739    4.3507    2.1316 C   0  0  0  0  0  0  0  0  0  0  0  0
    1.4921    4.0141    1.3907 N   0  0  0  0  0  0  0  0  0  0  0  0
    1.4007    3.5395    0.0077 C   0  0  0  0  0  0  0  0  0  0  0  0
    1.1592    2.0520    0.0020 C   0  0  0  0  0  0  0  0  0  0  0  0
   -0.0167    1.3785    0.0096 C   0  0  0  0  0  0  0  0  0  0  0  0
    0.0021   -0.0041    0.0020 C   0  0  0  0  0  0  0  0  0  0  0  0
    1.1977   -0.6448   -0.0128 C   0  0  0  0  0  0  0  0  0  0  0  0
    2.3481    0.7203   -0.0165 S   0  0  0  0  0  0  0  0  0  0  0  0
    1.5242   -2.3498   -0.0259 Cl  0  0  0  0  0  0  0  0  0  0  0  0
    2.9724    4.1700    2.1164 S   0  0  0  0  0  0  0  0  0  0  0  0
    2.7487    4.0871    3.5172 O   0  0  0  0  0  0  0  0  0  0  0  0
    3.8547    3.2907    1.4324 O   0  0  0  0  0  0  0  0  0  0  0  0
    3.5413    5.8060    1.7933 C   0  0  0  0  0  0  0  0  0  0  0  0
    4.3024    6.0610    0.6638 C   0  0  0  0  0  0  0  0  0  0  0  0
    4.7500    7.3394    0.3969 C   0  0  0  0  0  0  0  0  0  0  0  0
    4.4485    8.3774    1.2661 C   0  0  0  0  0  0  0  0  0  0  0  0
    3.6831    8.1228    2.4128 C   0  0  0  0  0  0  0  0  0  0  0  0
    3.2321    6.8247    2.6677 C   0  0  0  0  0  0  0  0  0  0  0  0
    3.3557    9.2176    3.3438 C   0  0  0  0  0  0  0  0  0  0  0  0
    3.7496   10.3448    3.1187 O   0  0  0  0  0  0  0  0  0  0  0  0
    4.8923    9.6329    1.0081 O   0  0  0  0  0  0  0  0  0  0  0  0
   -0.3066    3.9121    4.6586 H   0  0  0  0  0  0  0  0  0  0  0  0
   -0.9386    2.1603    4.4831 H   0  0  0  0  0  0  0  0  0  0  0  0
   -0.5204    2.2450    2.1315 H   0  0  0  0  0  0  0  0  0  0  0  0
    0.5127    5.0686    2.9164 H   0  0  0  0  0  0  0  0  0  0  0  0
   -0.4568    4.7868    1.4505 H   0  0  0  0  0  0  0  0  0  0  0  0
    2.3324    3.7583   -0.5139 H   0  0  0  0  0  0  0  0  0  0  0  0
    0.5755    4.0434   -0.4956 H   0  0  0  0  0  0  0  0  0  0  0  0
   -0.9547    1.9138    0.0170 H   0  0  0  0  0  0  0  0  0  0  0  0
   -0.9208   -0.5651    0.0082 H   0  0  0  0  0  0  0  0  0  0  0  0
    4.5435    5.2555   -0.0140 H   0  0  0  0  0  0  0  0  0  0  0  0
    5.3396    7.5306   -0.4875 H   0  0  0  0  0  0  0  0  0  0  0  0
    2.6423    6.6204    3.5491 H   0  0  0  0  0  0  0  0  0  0  0  0
    5.7592    9.8296    1.3887 H   0  0  0  0  0  0  0  0  0  0  0  0
    2.6194    8.9685    4.4445 O   0  0  0  0  0  1  0  0  0  0  0  0
  1  2  2  0  0  0  0
  1 24  1  0  0  0  0
  1 25  1  0  0  0  0
  2  3  1  0  0  0  0
  2 26  1  0  0  0  0
  3  4  1  0  0  0  0
  3 27  1  0  0  0  0
  3 28  1  0  0  0  0
  4  5  1  0  0  0  0
  4 12  1  0  0  0  0
  5  6  1  0  0  0  0
  5 29  1  0  0  0  0
  5 30  1  0  0  0  0
  6 10  1  0  0  0  0
  6  7  2  0  0  0  0
  7  8  1  0  0  0  0
  7 31  1  0  0  0  0
  8  9  2  0  0  0  0
  8 32  1  0  0  0  0
  9 10  1  0  0  0  0
  9 11  1  0  0  0  0
 12 13  2  0  0  0  0
 12 14  2  0  0  0  0
 12 15  1  0  0  0  0
 15 20  2  0  0  0  0
 15 16  1  0  0  0  0
 16 17  2  0  0  0  0
 16 33  1  0  0  0  0
 17 18  1  0  0  0  0
 17 34  1  0  0  0  0
 18 19  2  0  0  0  0
 18 23  1  0  0  0  0
 19 20  1  0  0  0  0
 19 21  1  0  0  0  0
 20 35  1  0  0  0  0
 21 22  2  0  0  0  0
 21 37  1  0  0  0  0
 23 36  1  0  0  0  0
M  END
$$$$
ZINC65193786
 OpenBabel01252620473D

 46 49  0  0  1  0  0  0  0  0999 V2000
   -0.0184    1.5028    0.0103 C   0  0  0  0  0  0  0  0  0  0  0  0
    0.0021   -0.0041    0.0020 C   0  0  0  0  0  0  0  0  0  0  0  0
    0.0083   -0.7709   -1.0379 N   0  0  0  0  0  0  0  0  0  0  0  0
    0.0278   -2.0839   -0.7421 C   0  0  0  0  0  0  0  0  0  0  0  0
    0.0365   -2.3019    0.5908 C   0  0  0  0  0  0  0  0  0  0  0  0
    0.0260   -0.9171    1.2123 C   0  0  1  0  0  0  0  0  0  0  0  0
   -0.8677   -0.7756    1.8201 H   0  0  0  0  0  0  0  0  0  0  0  0
    1.5245   -0.6400    2.1962 S   0  0  0  0  0  0  0  0  0  0  0  0
    1.4665   -1.3941    3.3992 O   0  0  0  0  0  0  0  0  0  0  0  0
    2.6741   -0.6933    1.3627 O   0  0  0  0  0  0  0  0  0  0  0  0
    1.4282    0.9399    2.6827 N   0  0  0  0  0  2  0  0  0  0  0  0
    2.4402    1.4905    3.4723 C   0  0  0  0  0  0  0  0  0  0  0  0
    3.5313    0.7149    3.8454 C   0  0  0  0  0  0  0  0  0  0  0  0
    4.5320    1.2595    4.6262 C   0  0  0  0  0  0  0  0  0  0  0  0
    4.4515    2.5764    5.0380 C   0  0  0  0  0  0  0  0  0  0  0  0
    3.3645    3.3559    4.6681 C   0  0  0  0  0  0  0  0  0  0  0  0
    2.3604    2.8146    3.8806 C   0  0  0  0  0  0  0  0  0  0  0  0
    3.2869    4.6506    5.0738 O   0  0  0  0  0  0  0  0  0  0  0  0
    4.3596    5.1435    5.8790 C   0  0  0  0  0  0  0  0  0  0  0  0
    0.0573   -3.5917    1.2845 C   0  0  0  0  0  0  0  0  0  0  0  0
    0.0592   -3.7785    2.5881 N   0  0  0  0  0  0  0  0  0  0  0  0
    0.0796   -5.0411    2.8344 N   0  0  0  0  0  0  0  0  0  0  0  0
    0.0914   -5.7055    1.7119 C   0  0  0  0  0  0  0  0  0  0  0  0
    0.0723   -4.8118    0.7074 O   0  0  0  0  0  0  0  0  0  0  0  0
    0.1160   -7.2053    1.5669 C   0  0  0  0  0  0  0  0  0  0  0  0
   -0.0756   -8.0408    2.8343 C   0  0  0  0  0  0  0  0  0  0  0  0
    1.3029   -7.9546    2.1759 C   0  0  0  0  0  0  0  0  0  0  0  0
    0.0382   -3.1806   -1.7756 C   0  0  0  0  0  0  0  0  0  0  0  0
    1.0042    1.8801    0.0026 H   0  0  0  0  0  0  0  0  0  0  0  0
   -0.5455    1.8639   -0.8728 H   0  0  0  0  0  0  0  0  0  0  0  0
   -0.5286    1.8543    0.9071 H   0  0  0  0  0  0  0  0  0  0  0  0
    3.5967   -0.3144    3.5249 H   0  0  0  0  0  0  0  0  0  0  0  0
    5.3789    0.6551    4.9158 H   0  0  0  0  0  0  0  0  0  0  0  0
    5.2354    2.9993    5.6487 H   0  0  0  0  0  0  0  0  0  0  0  0
    1.5158    3.4209    3.5884 H   0  0  0  0  0  0  0  0  0  0  0  0
    4.4285    4.5538    6.7931 H   0  0  0  0  0  0  0  0  0  0  0  0
    5.2951    5.0658    5.3251 H   0  0  0  0  0  0  0  0  0  0  0  0
    4.1734    6.1870    6.1331 H   0  0  0  0  0  0  0  0  0  0  0  0
   -0.3025   -7.5949    0.6389 H   0  0  0  0  0  0  0  0  0  0  0  0
   -0.2194   -7.5057    3.7729 H   0  0  0  0  0  0  0  0  0  0  0  0
   -0.6203   -8.9802    2.7402 H   0  0  0  0  0  0  0  0  0  0  0  0
    1.6650   -8.8372    1.6488 H   0  0  0  0  0  0  0  0  0  0  0  0
    2.0659   -7.3627    2.6815 H   0  0  0  0  0  0  0  0  0  0  0  0
    0.0280   -2.7404   -2.7727 H   0  0  0  0  0  0  0  0  0  0  0  0
    0.9370   -3.7854   -1.6546 H   0  0  0  0  0  0  0  0  0  0  0  0
   -0.8428   -3.8094   -1.6470 H   0  0  0  0  0  0  0  0  0  0  0  0
  1  2  1  0  0  0  0
  1 29  1  0  0  0  0
  1 30  1  0  0  0  0
  1 31  1  0  0  0  0
  2  6  1  0  0  0  0
  2  3  2  0  0  0  0
  3  4  1  0  0  0  0
  4  5  2  0  0  0  0
  4 28  1  0  0  0  0
  5  6  1  0  0  0  0
  5 20  1  0  0  0  0
  6  7  1  1  0  0  0
  6  8  1  0  0  0  0
  8  9  2  0  0  0  0
  8 10  2  0  0  0  0
  8 11  1  0  0  0  0
 11 12  1  0  0  0  0
 12 17  2  0  0  0  0
 12 13  1  0  0  0  0
 13 14  2  0  0  0  0
 13 32  1  0  0  0  0
 14 15  1  0  0  0  0
 14 33  1  0  0  0  0
 15 16  2  0  0  0  0
 15 34  1  0  0  0  0
 16 17  1  0  0  0  0
 16 18  1  0  0  0  0
 17 35  1  0  0  0  0
 18 19  1  0  0  0  0
 19 36  1  0  0  0  0
 19 37  1  0  0  0  0
 19 38  1  0  0  0  0
 20 24  1  0  0  0  0
 20 21  2  0  0  0  0
 21 22  1  0  0  0  0
 22 23  2  0  0  0  0
 23 24  1  0  0  0  0
 23 25  1  0  0  0  0
 25 27  1  0  0  0  0
 25 26  1  0  0  0  0
 25 39  1  0  0  0  0
 26 27  1  0  0  0  0
 26 40  1  0  0  0  0
 26 41  1  0  0  0  0
 27 42  1  0  0  0  0
 27 43  1  0  0  0  0
 28 44  1  0  0  0  0
 28 45  1  0  0  0  0
 28 46  1  0  0  0  0
M  END
$$$$
ZINC13218125
 OpenBabel01252620473D

 50 54  0  0  1  0  0  0  0  0999 V2000
   -0.1252    1.4462   -0.0116 C   0  0  0  0  0  0  0  0  0  0  0  0
   -0.0723   -0.0599   -0.0022 C   0  0  0  0  0  0  0  0  0  0  0  0
   -0.1908   -0.7631   -1.1866 C   0  0  0  0  0  0  0  0  0  0  0  0
   -0.1423   -2.1444   -1.1780 C   0  0  0  0  0  0  0  0  0  0  0  0
    0.0253   -2.8228    0.0150 C   0  0  0  0  0  0  0  0  0  0  0  0
    0.1447   -2.1197    1.1989 C   0  0  0  0  0  0  0  0  0  0  0  0
    0.1005   -0.7379    1.1898 C   0  0  0  0  0  0  0  0  0  0  0  0
    0.2360    0.0289    2.4800 C   0  0  1  0  0  0  0  0  0  0  0  0
    0.7151    0.9904    2.2956 H   0  0  0  0  0  0  0  0  0  0  0  0
   -1.1234    0.2373    3.1058 C   0  0  0  0  0  0  0  0  0  0  0  0
   -1.0942   -0.3717    4.3147 C   0  0  0  0  0  0  0  0  0  0  0  0
    0.2363   -0.9800    4.5197 C   0  0  0  0  0  0  0  0  0  0  0  0
    0.5749   -1.5989    5.5089 O   0  0  0  0  0  0  0  0  0  0  0  0
    1.0189   -0.7475    3.4487 N   0  0  0  0  0  0  0  0  0  0  0  0
    2.3260   -1.1661    3.2887 C   0  0  0  0  0  0  0  0  0  0  0  0
    3.1383   -0.9670    2.2735 N   0  0  0  0  0  0  0  0  0  0  0  0
    4.3951   -1.4335    2.2484 C   0  0  0  0  0  0  0  0  0  0  0  0
    5.3589   -1.2854    1.2187 C   0  0  0  0  0  0  0  0  0  0  0  0
    6.5983   -1.8191    1.3388 C   0  0  0  0  0  0  0  0  0  0  0  0
    6.9787   -2.5380    2.4829 C   0  0  0  0  0  0  0  0  0  0  0  0
    6.0518   -2.7032    3.5199 C   0  0  0  0  0  0  0  0  0  0  0  0
    4.8028   -2.1627    3.3935 C   0  0  0  0  0  0  0  0  0  0  0  0
    3.3475   -2.1096    4.4119 S   0  0  0  0  0  0  0  0  0  0  0  0
    8.3300   -3.1095    2.5909 C   0  0  0  0  0  0  0  0  0  0  0  0
    9.1322   -2.9598    1.6792 O   0  0  0  0  0  0  0  0  0  0  0  0
    8.6517   -3.7345    3.5924 O   0  0  0  0  0  1  0  0  0  0  0  0
   -2.1204   -0.4158    5.1953 O   0  5  0  0  0  0  0  0  0  0  0  0
   -2.2555    0.9595    2.5176 C   0  0  0  0  0  0  0  0  0  0  0  0
   -2.9484    0.4215    1.6743 O   0  0  0  0  0  0  0  0  0  0  0  0
   -2.5550    2.3402    2.9486 C   0  0  0  0  0  0  0  0  0  0  0  0
   -1.8255    2.9258    3.9866 C   0  0  0  0  0  0  0  0  0  0  0  0
   -2.1102    4.2145    4.3838 C   0  0  0  0  0  0  0  0  0  0  0  0
   -3.1167    4.9307    3.7577 C   0  0  0  0  0  0  0  0  0  0  0  0
   -3.8442    4.3605    2.7299 C   0  0  0  0  0  0  0  0  0  0  0  0
   -3.5669    3.0705    2.3158 C   0  0  0  0  0  0  0  0  0  0  0  0
   -4.2739    2.5156    1.3072 F   0  0  0  0  0  0  0  0  0  0  0  0
    0.8885    1.8451   -0.0497 H   0  0  0  0  0  0  0  0  0  0  0  0
   -0.6820    1.7847   -0.8853 H   0  0  0  0  0  0  0  0  0  0  0  0
   -0.6203    1.7980    0.8935 H   0  0  0  0  0  0  0  0  0  0  0  0
   -0.3218   -0.2332   -2.1185 H   0  0  0  0  0  0  0  0  0  0  0  0
   -0.2357   -2.6938   -2.1031 H   0  0  0  0  0  0  0  0  0  0  0  0
    0.0625   -3.9021    0.0218 H   0  0  0  0  0  0  0  0  0  0  0  0
    0.2753   -2.6497    2.1309 H   0  0  0  0  0  0  0  0  0  0  0  0
    5.1005   -0.7386    0.3240 H   0  0  0  0  0  0  0  0  0  0  0  0
    7.3093   -1.6888    0.5364 H   0  0  0  0  0  0  0  0  0  0  0  0
    6.3212   -3.2520    4.4101 H   0  0  0  0  0  0  0  0  0  0  0  0
   -1.0402    2.3695    4.4769 H   0  0  0  0  0  0  0  0  0  0  0  0
   -1.5467    4.6672    5.1863 H   0  0  0  0  0  0  0  0  0  0  0  0
   -3.3346    5.9400    4.0744 H   0  0  0  0  0  0  0  0  0  0  0  0
   -4.6279    4.9250    2.2465 H   0  0  0  0  0  0  0  0  0  0  0  0
  1  2  1  0  0  0  0
  1 37  1  0  0  0  0
  1 38  1  0  0  0  0
  1 39  1  0  0  0  0
  2  7  2  0  0  0  0
  2  3  1  0  0  0  0
  3  4  2  0  0  0  0
  3 40  1  0  0  0  0
  4  5  1  0  0  0  0
  4 41  1  0  0  0  0
  5  6  2  0  0  0  0
  5 42  1  0  0  0  0
  6  7  1  0  0  0  0
  6 43  1  0  0  0  0
  7  8  1  0  0  0  0
  8  9  1  6  0  0  0
  8 14  1  0  0  0  0
  8 10  1  0  0  0  0
 10 11  2  0  0  0  0
 10 28  1  0  0  0  0
 11 12  1  0  0  0  0
 11 27  1  0  0  0  0
 12 13  2  0  0  0  0
 12 14  1  0  0  0  0
 14 15  1  0  0  0  0
 15 23  1  0  0  0  0
 15 16  2  0  0  0  0
 16 17  1  0  0  0  0
 17 22  2  0  0  0  0
 17 18  1  0  0  0  0
 18 19  2  0  0  0  0
 18 44  1  0  0  0  0
 19 20  1  0  0  0  0
 19 45  1  0  0  0  0
 20 21  2  0  0  0  0
 20 24  1  0  0  0  0
 21 22  1  0  0  0  0
 21 46  1  0  0  0  0
 22 23  1  0  0  0  0
 24 25  2  0  0  0  0
 24 26  1  0  0  0  0
 28 29  2  0  0  0  0
 28 30  1  0  0  0  0
 30 35  2  0  0  0  0
 30 31  1  0  0  0  0
 31 32  2  0  0  0  0
 31 47  1  0  0  0  0
 32 33  1  0  0  0  0
 32 48  1  0  0  0  0
 33 34  2  0  0  0  0
 33 49  1  0  0  0  0
 34 35  1  0  0  0  0
 34 50  1  0  0  0  0
 35 36  1  0  0  0  0
M  CHG  1  27  -1
M  END
$$$$
ZINC08996615
 OpenBabel01252620473D

 50 53  0  0  1  0  0  0  0  0999 V2000
    1.5979   -3.0112   -0.3433 C   0  0  0  0  0  0  0  0  0  0  0  0
    0.7420   -1.7711   -0.3658 C   0  0  0  0  0  0  0  0  0  0  0  0
    1.1664   -0.4939   -0.2330 C   0  0  0  0  0  0  0  0  0  0  0  0
   -0.0249    0.2743   -0.3251 C   0  0  0  0  0  0  0  0  0  0  0  0
   -0.9991   -0.5818   -0.4908 N   0  0  0  0  0  0  0  0  0  0  0  0
   -0.5888   -1.7188   -0.5207 O   0  0  0  0  0  0  0  0  0  0  0  0
   -0.1340    1.6615   -0.2483 N   0  0  0  0  0  0  0  0  0  0  0  0
    0.9808    2.6118   -0.1583 C   0  0  1  0  0  0  0  0  0  0  0  0
    1.6465    2.4947   -1.0261 H   0  0  0  0  0  0  0  0  0  0  0  0
    0.3580    3.9871   -0.0988 C   0  0  0  0  0  0  0  0  0  0  0  0
   -0.9833    3.8109   -0.1513 C   0  0  0  0  0  0  0  0  0  0  0  0
   -1.2797    2.3668   -0.2493 C   0  0  0  0  0  0  0  0  0  0  0  0
   -2.3938    1.8868   -0.3178 O   0  0  0  0  0  0  0  0  0  0  0  0
   -1.9056    4.8004   -0.1239 O   0  5  0  0  0  0  0  0  0  0  0  0
    1.0689    5.2656   -0.0031 C   0  0  0  0  0  0  0  0  0  0  0  0
    0.9566    5.9509    0.9960 O   0  0  0  0  0  0  0  0  0  0  0  0
    1.9218    5.7219   -1.1198 C   0  0  0  0  0  0  0  0  0  0  0  0
    1.9647    4.9944   -2.3121 C   0  0  0  0  0  0  0  0  0  0  0  0
    2.7580    5.4276   -3.3523 C   0  0  0  0  0  0  0  0  0  0  0  0
    3.5209    6.5776   -3.2137 C   0  0  0  0  0  0  0  0  0  0  0  0
    3.4866    7.3004   -2.0305 C   0  0  0  0  0  0  0  0  0  0  0  0
    2.6929    6.8794   -0.9856 C   0  0  0  0  0  0  0  0  0  0  0  0
    4.3008    6.9949   -4.2349 F   0  0  0  0  0  0  0  0  0  0  0  0
    1.7846    2.3511    1.0895 C   0  0  0  0  0  0  0  0  0  0  0  0
    1.1395    2.1411    2.2941 C   0  0  0  0  0  0  0  0  0  0  0  0
    1.8721    1.8959    3.4405 C   0  0  0  0  0  0  0  0  0  0  0  0
    3.2565    1.8714    3.3860 C   0  0  0  0  0  0  0  0  0  0  0  0
    3.9060    2.0884    2.1746 C   0  0  0  0  0  0  0  0  0  0  0  0
    3.1654    2.3280    1.0282 C   0  0  0  0  0  0  0  0  0  0  0  0
    5.2644    2.0650    2.1159 O   0  0  0  0  0  0  0  0  0  0  0  0
    5.8599    2.1780    0.8218 C   0  0  0  0  0  0  0  0  0  0  0  0
    3.9789    1.6363    4.5140 O   0  0  0  0  0  0  0  0  0  0  0  0
    3.2452    1.4222    5.7214 C   0  0  0  0  0  0  0  0  0  0  0  0
    2.6509   -2.7274   -0.1999 H   0  0  0  0  0  0  0  0  0  0  0  0
    1.4896   -3.5488   -1.2968 H   0  0  0  0  0  0  0  0  0  0  0  0
    1.2779   -3.6626    0.4833 H   0  0  0  0  0  0  0  0  0  0  0  0
    2.1768   -0.1401   -0.0898 H   0  0  0  0  0  0  0  0  0  0  0  0
    1.3744    4.0964   -2.4195 H   0  0  0  0  0  0  0  0  0  0  0  0
    2.7888    4.8684   -4.2757 H   0  0  0  0  0  0  0  0  0  0  0  0
    4.0833    8.1947   -1.9278 H   0  0  0  0  0  0  0  0  0  0  0  0
    2.6673    7.4428   -0.0646 H   0  0  0  0  0  0  0  0  0  0  0  0
    0.0607    2.1646    2.3389 H   0  0  0  0  0  0  0  0  0  0  0  0
    1.3656    1.7275    4.3794 H   0  0  0  0  0  0  0  0  0  0  0  0
    3.6671    2.4964    0.0867 H   0  0  0  0  0  0  0  0  0  0  0  0
    6.9552    2.1452    0.9181 H   0  0  0  0  0  0  0  0  0  0  0  0
    5.5606    3.1316    0.3625 H   0  0  0  0  0  0  0  0  0  0  0  0
    5.5223    1.3442    0.1888 H   0  0  0  0  0  0  0  0  0  0  0  0
    3.9465    1.2452    6.5501 H   0  0  0  0  0  0  0  0  0  0  0  0
    2.5902    0.5466    5.6020 H   0  0  0  0  0  0  0  0  0  0  0  0
    2.6341    2.3100    5.9414 H   0  0  0  0  0  0  0  0  0  0  0  0
  1  2  1  0  0  0  0
  1 34  1  0  0  0  0
  1 35  1  0  0  0  0
  1 36  1  0  0  0  0
  2  6  1  0  0  0  0
  2  3  2  0  0  0  0
  3  4  1  0  0  0  0
  3 37  1  0  0  0  0
  4  5  2  0  0  0  0
  4  7  1  0  0  0  0
  5  6  1  0  0  0  0
  7 12  1  0  0  0  0
  7  8  1  0  0  0  0
  8  9  1  6  0  0  0
  8 10  1  0  0  0  0
  8 24  1  0  0  0  0
 10 11  2  0  0  0  0
 10 15  1  0  0  0  0
 11 12  1  0  0  0  0
 11 14  1  0  0  0  0
 12 13  2  0  0  0  0
 15 16  2  0  0  0  0
 15 17  1  0  0  0  0
 17 22  2  0  0  0  0
 17 18  1  0  0  0  0
 18 19  2  0  0  0  0
 18 38  1  0  0  0  0
 19 20  1  0  0  0  0
 19 39  1  0  0  0  0
 20 21  2  0  0  0  0
 20 23  1  0  0  0  0
 21 22  1  0  0  0  0
 21 40  1  0  0  0  0
 22 41  1  0  0  0  0
 24 29  2  0  0  0  0
 24 25  1  0  0  0  0
 25 26  2  0  0  0  0
 25 42  1  0  0  0  0
 26 27  1  0  0  0  0
 26 43  1  0  0  0  0
 27 28  2  0  0  0  0
 27 32  1  0  0  0  0
 28 29  1  0  0  0  0
 28 30  1  0  0  0  0
 29 44  1  0  0  0  0
 30 31  1  0  0  0  0
 31 45  1  0  0  0  0
 31 46  1  0  0  0  0
 31 47  1  0  0  0  0
 32 33  1  0  0  0  0
 33 48  1  0  0  0  0
 33 49  1  0  0  0  0
 33 50  1  0  0  0  0
M  CHG  1  14  -1
M  END
$$$$
ZINC13314863
 OpenBabel01252620473D

 46 48  0  0  0  0  0  0  0  0999 V2000
   -4.3644    0.8408   -1.6988 C   0  0  0  0  0  0  0  0  0  0  0  0
   -4.4412    0.0546   -2.8299 C   0  0  0  0  0  0  0  0  0  0  0  0
   -3.5696   -1.0247   -2.9864 C   0  0  0  0  0  0  0  0  0  0  0  0
   -2.6251   -1.3006   -1.9955 C   0  0  0  0  0  0  0  0  0  0  0  0
   -2.5592   -0.5065   -0.8698 C   0  0  0  0  0  0  0  0  0  0  0  0
   -3.4300    0.5583   -0.7184 C   0  0  0  0  0  0  0  0  0  0  0  0
   -1.3682   -0.8528    0.3817 S   0  0  0  0  0  0  0  0  0  0  0  0
   -1.0398   -2.2300    0.2599 O   0  0  0  0  0  0  0  0  0  0  0  0
   -1.8715   -0.2934    1.5872 O   0  0  0  0  0  0  0  0  0  0  0  0
    0.0021   -0.0041    0.0020 N   0  0  0  0  0  0  0  0  0  0  0  0
   -0.0178    1.4608    0.0101 C   0  0  0  0  0  0  0  0  0  0  0  0
    1.4176    1.9904   -0.0008 C   0  0  0  0  0  0  0  0  0  0  0  0
    1.3968    3.5202    0.0076 C   0  0  0  0  0  0  0  0  0  0  0  0
    2.8322    4.0498   -0.0032 C   0  0  0  0  0  0  0  0  0  0  0  0
    2.8115    5.5796    0.0052 C   0  0  0  0  0  0  0  0  0  0  0  0
    4.2253    6.1012   -0.0055 C   0  0  0  0  0  0  0  0  0  0  0  0
    4.9442    6.3758   -1.0648 N   0  0  0  0  0  0  0  0  0  0  0  0
    6.1357    6.8120   -0.5924 C   0  0  0  0  0  0  0  0  0  0  0  0
    6.0682    6.7760    0.7157 N   0  0  0  0  0  0  0  0  0  0  0  0
    4.9778    6.3756    1.0648 O   0  0  0  0  0  0  0  0  0  0  0  0
    7.2942    7.2461   -1.3999 C   0  0  0  0  0  0  0  0  0  0  0  0
    8.5168    7.7002   -0.9809 C   0  0  0  0  0  0  0  0  0  0  0  0
    9.4535    8.0481   -1.9273 C   0  0  0  0  0  0  0  0  0  0  0  0
    9.1356    7.9415   -3.2441 C   0  0  0  0  0  0  0  0  0  0  0  0
    7.4624    7.3229   -3.1757 S   0  0  0  0  0  0  0  0  0  0  0  0
   -3.6463   -1.8712   -4.1947 C   0  0  0  0  0  0  0  0  0  0  0  0
   -2.8868   -2.8098   -4.3279 O   0  0  0  0  0  0  0  0  0  0  0  0
   -5.0383    1.6758   -1.5762 H   0  0  0  0  0  0  0  0  0  0  0  0
   -5.1743    0.2732   -3.5923 H   0  0  0  0  0  0  0  0  0  0  0  0
   -1.9475   -2.1338   -2.1106 H   0  0  0  0  0  0  0  0  0  0  0  0
   -3.3770    1.1743    0.1671 H   0  0  0  0  0  0  0  0  0  0  0  0
    0.8179   -0.4768   -0.2257 H   0  0  0  0  0  0  0  0  0  0  0  0
   -0.5450    1.8219   -0.8730 H   0  0  0  0  0  0  0  0  0  0  0  0
   -0.5280    1.8123    0.9069 H   0  0  0  0  0  0  0  0  0  0  0  0
    1.9448    1.6293    0.8823 H   0  0  0  0  0  0  0  0  0  0  0  0
    1.9278    1.6388   -0.8976 H   0  0  0  0  0  0  0  0  0  0  0  0
    0.8697    3.8813   -0.8754 H   0  0  0  0  0  0  0  0  0  0  0  0
    0.8867    3.8717    0.9044 H   0  0  0  0  0  0  0  0  0  0  0  0
    3.3594    3.6887    0.8798 H   0  0  0  0  0  0  0  0  0  0  0  0
    3.3424    3.6983   -0.9000 H   0  0  0  0  0  0  0  0  0  0  0  0
    2.2843    5.9407   -0.8779 H   0  0  0  0  0  0  0  0  0  0  0  0
    2.3013    5.9311    0.9020 H   0  0  0  0  0  0  0  0  0  0  0  0
    8.7423    7.7810    0.0722 H   0  0  0  0  0  0  0  0  0  0  0  0
   10.4275    8.4054   -1.6272 H   0  0  0  0  0  0  0  0  0  0  0  0
    9.7395    8.1720   -4.1093 H   0  0  0  0  0  0  0  0  0  0  0  0
   -4.5586   -1.6023   -5.1487 O   0  0  0  0  0  1  0  0  0  0  0  0
  1  6  2  0  0  0  0
  1  2  1  0  0  0  0
  1 28  1  0  0  0  0
  2  3  2  0  0  0  0
  2 29  1  0  0  0  0
  3  4  1  0  0  0  0
  3 26  1  0  0  0  0
  4  5  2  0  0  0  0
  4 30  1  0  0  0  0
  5  6  1  0  0  0  0
  5  7  1  0  0  0  0
  6 31  1  0  0  0  0
  7  8  2  0  0  0  0
  7  9  2  0  0  0  0
  7 10  1  0  0  0  0
 10 11  1  0  0  0  0
 10 32  1  0  0  0  0
 11 12  1  0  0  0  0
 11 33  1  0  0  0  0
 11 34  1  0  0  0  0
 12 13  1  0  0  0  0
 12 35  1  0  0  0  0
 12 36  1  0  0  0  0
 13 14  1  0  0  0  0
 13 37  1  0  0  0  0
 13 38  1  0  0  0  0
 14 15  1  0  0  0  0
 14 39  1  0  0  0  0
 14 40  1  0  0  0  0
 15 16  1  0  0  0  0
 15 41  1  0  0  0  0
 15 42  1  0  0  0  0
 16 20  1  0  0  0  0
 16 17  2  0  0  0  0
 17 18  1  0  0  0  0
 18 19  2  0  0  0  0
 18 21  1  0  0  0  0
 19 20  1  0  0  0  0
 21 25  1  0  0  0  0
 21 22  2  0  0  0  0
 22 23  1  0  0  0  0
 22 43  1  0  0  0  0
 23 24  2  0  0  0  0
 23 44  1  0  0  0  0
 24 25  1  0  0  0  0
 24 45  1  0  0  0  0
 26 27  2  0  0  0  0
 26 46  1  0  0  0  0
M  END
$$$$
ZINC60381058
 OpenBabel01252620473D

 40 42  0  0  0  0  0  0  0  0999 V2000
   -0.0184    1.5028    0.0103 C   0  0  0  0  0  0  0  0  0  0  0  0
    0.0021   -0.0041    0.0020 C   0  0  0  0  0  0  0  0  0  0  0  0
    0.0082   -0.7734   -1.0551 N   0  0  0  0  0  0  0  0  0  0  0  0
    0.0264   -2.0114   -0.7140 N   0  0  0  0  0  0  0  0  0  0  0  0
    0.0331   -2.1192    0.5709 N   0  0  0  0  0  0  0  0  0  0  0  0
    0.0233   -0.8105    1.0851 N   0  0  0  0  0  0  0  0  0  0  0  0
    0.0316   -0.4252    2.4342 C   0  0  0  0  0  0  0  0  0  0  0  0
    0.7053    0.7246    2.8238 C   0  0  0  0  0  0  0  0  0  0  0  0
    0.7142    1.1061    4.1521 C   0  0  0  0  0  0  0  0  0  0  0  0
    0.0521    0.3440    5.0974 C   0  0  0  0  0  0  0  0  0  0  0  0
   -0.6244   -0.8089    4.7122 C   0  0  0  0  0  0  0  0  0  0  0  0
   -0.6382   -1.1897    3.3783 C   0  0  0  0  0  0  0  0  0  0  0  0
   -1.2940   -1.5800    5.6675 N   0  0  0  0  0  2  0  0  0  0  0  0
   -1.2820   -1.1209    7.2586 S   0  0  0  0  0  0  0  0  0  0  0  0
    0.0620   -1.2382    7.7050 O   0  0  0  0  0  0  0  0  0  0  0  0
   -2.0063    0.0992    7.3347 O   0  0  0  0  0  0  0  0  0  0  0  0
   -2.2159   -2.3177    8.1532 C   0  0  0  0  0  0  0  0  0  0  0  0
   -3.5776   -2.1459    8.3206 C   0  0  0  0  0  0  0  0  0  0  0  0
   -4.3120   -3.0825    9.0220 C   0  0  0  0  0  0  0  0  0  0  0  0
   -3.6822   -4.1963    9.5581 C   0  0  0  0  0  0  0  0  0  0  0  0
   -2.3159   -4.3665    9.3883 C   0  0  0  0  0  0  0  0  0  0  0  0
   -1.5869   -3.4297    8.6817 C   0  0  0  0  0  0  0  0  0  0  0  0
   -4.4024   -5.1189   10.2488 O   0  0  0  0  0  0  0  0  0  0  0  0
   -3.6880   -6.2401   10.7725 C   0  0  0  0  0  0  0  0  0  0  0  0
   -4.6438   -7.1487   11.5018 C   0  0  0  0  0  0  0  0  0  0  0  0
   -5.8272   -6.8626   11.5670 O   0  0  0  0  0  0  0  0  0  0  0  0
   -4.2338   -8.1700   12.0266 O   0  0  0  0  0  1  0  0  0  0  0  0
    0.0628    0.7190    6.3953 F   0  0  0  0  0  0  0  0  0  0  0  0
    1.0042    1.8801    0.0026 H   0  0  0  0  0  0  0  0  0  0  0  0
   -0.5455    1.8639   -0.8728 H   0  0  0  0  0  0  0  0  0  0  0  0
   -0.5286    1.8543    0.9071 H   0  0  0  0  0  0  0  0  0  0  0  0
    1.2235    1.3215    2.0879 H   0  0  0  0  0  0  0  0  0  0  0  0
    1.2394    2.0008    4.4524 H   0  0  0  0  0  0  0  0  0  0  0  0
   -1.1661   -2.0821    3.0759 H   0  0  0  0  0  0  0  0  0  0  0  0
   -4.0675   -1.2787    7.9031 H   0  0  0  0  0  0  0  0  0  0  0  0
   -5.3755   -2.9476    9.1531 H   0  0  0  0  0  0  0  0  0  0  0  0
   -1.8233   -5.2328    9.8047 H   0  0  0  0  0  0  0  0  0  0  0  0
   -0.5239   -3.5640    8.5454 H   0  0  0  0  0  0  0  0  0  0  0  0
   -3.2197   -6.7870    9.9542 H   0  0  0  0  0  0  0  0  0  0  0  0
   -2.9200   -5.8914   11.4629 H   0  0  0  0  0  0  0  0  0  0  0  0
  1  2  1  0  0  0  0
  1 29  1  0  0  0  0
  1 30  1  0  0  0  0
  1 31  1  0  0  0  0
  2  6  1  0  0  0  0
  2  3  2  0  0  0  0
  3  4  1  0  0  0  0
  4  5  2  0  0  0  0
  5  6  1  0  0  0  0
  6  7  1  0  0  0  0
  7 12  2  0  0  0  0
  7  8  1  0  0  0  0
  8  9  2  0  0  0  0
  8 32  1  0  0  0  0
  9 10  1  0  0  0  0
  9 33  1  0  0  0  0
 10 11  2  0  0  0  0
 10 28  1  0  0  0  0
 11 12  1  0  0  0  0
 11 13  1  0  0  0  0
 12 34  1  0  0  0  0
 13 14  1  0  0  0  0
 14 15  2  0  0  0  0
 14 16  2  0  0  0  0
 14 17  1  0  0  0  0
 17 22  2  0  0  0  0
 17 18  1  0  0  0  0
 18 19  2  0  0  0  0
 18 35  1  0  0  0  0
 19 20  1  0  0  0  0
 19 36  1  0  0  0  0
 20 21  2  0  0  0  0
 20 23  1  0  0  0  0
 21 22  1  0  0  0  0
 21 37  1  0  0  0  0
 22 38  1  0  0  0  0
 23 24  1  0  0  0  0
 24 25  1  0  0  0  0
 24 39  1  0  0  0  0
 24 40  1  0  0  0  0
 25 26  2  0  0  0  0
 25 27  1  0  0  0  0
M  END
$$$$
ZINC58570451
 OpenBabel01252620473D

 48 49  0  0  0  0  0  0  0  0999 V2000
    1.4825    0.3741   -0.5415 C   0  0  0  0  0  0  0  0  0  0  0  0
    1.3081   -1.1459   -0.5545 C   0  0  0  0  0  0  0  0  0  0  0  0
   -0.1788   -1.4896   -0.4449 C   0  0  0  0  0  0  0  0  0  0  0  0
   -0.3855   -3.2917   -0.4602 S   0  0  0  0  0  0  0  0  0  0  0  0
   -0.0365   -3.8136   -1.7350 O   0  0  0  0  0  0  0  0  0  0  0  0
    0.1549   -3.8565    0.7265 O   0  0  0  0  0  0  0  0  0  0  0  0
   -2.0191   -3.5337   -0.3374 N   0  0  0  0  0  2  0  0  0  0  0  0
   -2.5336   -4.8325   -0.3200 C   0  0  0  0  0  0  0  0  0  0  0  0
   -1.6736   -5.9220   -0.4000 C   0  0  0  0  0  0  0  0  0  0  0  0
   -2.1776   -7.2087   -0.3828 C   0  0  0  0  0  0  0  0  0  0  0  0
   -3.5381   -7.4209   -0.2859 C   0  0  0  0  0  0  0  0  0  0  0  0
   -4.4100   -6.3340   -0.2051 C   0  0  0  0  0  0  0  0  0  0  0  0
   -3.9012   -5.0352   -0.2172 C   0  0  0  0  0  0  0  0  0  0  0  0
   -5.8678   -6.5586   -0.1018 C   0  0  0  0  0  0  0  0  0  0  0  0
   -6.6253   -5.6106   -0.0315 O   0  0  0  0  0  0  0  0  0  0  0  0
   -6.3566   -7.8145   -0.0856 N   0  0  0  0  0  0  0  0  0  0  0  0
   -7.8010   -8.0370    0.0168 C   0  0  0  0  0  0  0  0  0  0  0  0
   -8.0826   -9.5175    0.0143 C   0  0  0  0  0  0  0  0  0  0  0  0
   -8.2936  -10.1785   -1.1821 C   0  0  0  0  0  0  0  0  0  0  0  0
   -8.5522  -11.5367   -1.1887 C   0  0  0  0  0  0  0  0  0  0  0  0
   -8.6006  -12.2378    0.0006 C   0  0  0  0  0  0  0  0  0  0  0  0
   -8.3892  -11.5771    1.2033 C   0  0  0  0  0  0  0  0  0  0  0  0
   -8.1240  -10.2137    1.2061 C   0  0  0  0  0  0  0  0  0  0  0  0
   -8.4375  -12.2845    2.4098 N   0  0  0  0  0  0  0  0  0  0  0  0
   -8.8949  -11.6829    3.5258 C   0  0  0  0  0  0  0  0  0  0  0  0
   -9.3552  -10.5591    3.4656 O   0  0  0  0  0  0  0  0  0  0  0  0
   -8.8420  -12.3270    4.7085 N   0  0  0  0  0  0  0  0  0  0  0  0
    2.5418    0.6190   -0.6196 H   0  0  0  0  0  0  0  0  0  0  0  0
    0.9460    0.8086   -1.3851 H   0  0  0  0  0  0  0  0  0  0  0  0
    1.0840    0.7776    0.3893 H   0  0  0  0  0  0  0  0  0  0  0  0
    1.7066   -1.5494   -1.4853 H   0  0  0  0  0  0  0  0  0  0  0  0
    1.8446   -1.5803    0.2890 H   0  0  0  0  0  0  0  0  0  0  0  0
   -0.5773   -1.0860    0.4860 H   0  0  0  0  0  0  0  0  0  0  0  0
   -0.7152   -1.0551   -1.2884 H   0  0  0  0  0  0  0  0  0  0  0  0
   -0.6082   -5.7622   -0.4763 H   0  0  0  0  0  0  0  0  0  0  0  0
   -1.5047   -8.0511   -0.4456 H   0  0  0  0  0  0  0  0  0  0  0  0
   -3.9279   -8.4280   -0.2731 H   0  0  0  0  0  0  0  0  0  0  0  0
   -4.5707   -4.1903   -0.1508 H   0  0  0  0  0  0  0  0  0  0  0  0
   -5.7521   -8.5710   -0.1417 H   0  0  0  0  0  0  0  0  0  0  0  0
   -8.1715   -7.5983    0.9432 H   0  0  0  0  0  0  0  0  0  0  0  0
   -8.3015   -7.5706   -0.8318 H   0  0  0  0  0  0  0  0  0  0  0  0
   -8.2566   -9.6325   -2.1132 H   0  0  0  0  0  0  0  0  0  0  0  0
   -8.7169  -12.0499   -2.1245 H   0  0  0  0  0  0  0  0  0  0  0  0
   -8.8030  -13.2986   -0.0052 H   0  0  0  0  0  0  0  0  0  0  0  0
   -7.9544   -9.6979    2.1396 H   0  0  0  0  0  0  0  0  0  0  0  0
   -8.1419  -13.2077    2.4430 H   0  0  0  0  0  0  0  0  0  0  0  0
   -8.4748  -13.2235    4.7566 H   0  0  0  0  0  0  0  0  0  0  0  0
   -9.1712  -11.8941    5.5117 H   0  0  0  0  0  0  0  0  0  0  0  0
  1  2  1  0  0  0  0
  1 28  1  0  0  0  0
  1 29  1  0  0  0  0
  1 30  1  0  0  0  0
  2  3  1  0  0  0  0
  2 31  1  0  0  0  0
  2 32  1  0  0  0  0
  3  4  1  0  0  0  0
  3 33  1  0  0  0  0
  3 34  1  0  0  0  0
  4  5  2  0  0  0  0
  4  6  2  0  0  0  0
  4  7  1  0  0  0  0
  7  8  1  0  0  0  0
  8 13  2  0  0  0  0
  8  9  1  0  0  0  0
  9 10  2  0  0  0  0
  9 35  1  0  0  0  0
 10 11  1  0  0  0  0
 10 36  1  0  0  0  0
 11 12  2  0  0  0  0
 11 37  1  0  0  0  0
 12 13  1  0  0  0  0
 12 14  1  0  0  0  0
 13 38  1  0  0  0  0
 14 15  2  0  0  0  0
 14 16  1  0  0  0  0
 16 17  1  0  0  0  0
 16 39  1  0  0  0  0
 17 18  1  0  0  0  0
 17 40  1  0  0  0  0
 17 41  1  0  0  0  0
 18 23  2  0  0  0  0
 18 19  1  0  0  0  0
 19 20  2  0  0  0  0
 19 42  1  0  0  0  0
 20 21  1  0  0  0  0
 20 43  1  0  0  0  0
 21 22  2  0  0  0  0
 21 44  1  0  0  0  0
 22 23  1  0  0  0  0
 22 24  1  0  0  0  0
 23 45  1  0  0  0  0
 24 25  1  0  0  0  0
 24 46  1  0  0  0  0
 25 26  2  0  0  0  0
 25 27  1  0  0  0  0
 27 47  1  0  0  0  0
 27 48  1  0  0  0  0
M  END
$$$$
ZINC66741784
 OpenBabel01252620473D

 36 36  0  0  0  0  0  0  0  0999 V2000
   -0.0173    1.4248    0.0099 C   0  0  0  0  0  0  0  0  0  0  0  0
    0.0021   -0.0041    0.0020 O   0  0  0  0  0  0  0  0  0  0  0  0
   -1.2004   -0.6375    0.0101 C   0  0  0  0  0  0  0  0  0  0  0  0
   -2.3747    0.1009    0.0195 C   0  0  0  0  0  0  0  0  0  0  0  0
   -3.5957   -0.5452    0.0278 C   0  0  0  0  0  0  0  0  0  0  0  0
   -3.6485   -1.9270    0.0266 C   0  0  0  0  0  0  0  0  0  0  0  0
   -2.4801   -2.6658    0.0172 C   0  0  0  0  0  0  0  0  0  0  0  0
   -1.2557   -2.0243    0.0032 C   0  0  0  0  0  0  0  0  0  0  0  0
    0.3423   -3.0352   -0.0181 Br  0  0  0  0  0  0  0  0  0  0  0  0
   -5.2078   -2.7475    0.0378 S   0  0  0  0  0  0  0  0  0  0  0  0
   -4.9831   -4.0393    0.5854 O   0  0  0  0  0  0  0  0  0  0  0  0
   -6.1428   -1.8352    0.5969 O   0  0  0  0  0  0  0  0  0  0  0  0
   -5.6533   -2.9737   -1.5411 N   0  0  0  0  0  0  0  0  0  0  0  0
   -6.7691   -3.5593   -1.8190 C   0  0  0  0  0  0  0  0  0  0  0  0
   -7.5727   -3.9873   -0.8234 O   0  5  0  0  0  0  0  0  0  0  0  0
   -7.1745   -3.7652   -3.2558 C   0  0  0  0  0  0  0  0  0  0  0  0
   -6.0955   -3.1927   -4.1772 C   0  0  0  0  0  0  0  0  0  0  0  0
   -6.4897   -3.3928   -5.5740 N   0  0  0  0  0  0  0  0  0  0  0  0
   -5.6869   -2.9653   -6.5686 C   0  0  0  0  0  0  0  0  0  0  0  0
   -4.6363   -2.4138   -6.3068 O   0  0  0  0  0  0  0  0  0  0  0  0
   -6.0491   -3.1492   -7.8522 O   0  0  0  0  0  0  0  0  0  0  0  0
   -5.1502   -2.6710   -8.8548 C   0  0  0  0  0  0  0  0  0  0  0  0
    1.0053    1.8021    0.0021 H   0  0  0  0  0  0  0  0  0  0  0  0
   -0.5445    1.7859   -0.8732 H   0  0  0  0  0  0  0  0  0  0  0  0
   -0.5275    1.7763    0.9067 H   0  0  0  0  0  0  0  0  0  0  0  0
   -2.3344    1.1801    0.0208 H   0  0  0  0  0  0  0  0  0  0  0  0
   -4.5101    0.0295    0.0355 H   0  0  0  0  0  0  0  0  0  0  0  0
   -2.5240   -3.7449    0.0167 H   0  0  0  0  0  0  0  0  0  0  0  0
   -7.2910   -4.8312   -3.4513 H   0  0  0  0  0  0  0  0  0  0  0  0
   -8.1199   -3.2560   -3.4431 H   0  0  0  0  0  0  0  0  0  0  0  0
   -5.9790   -2.1267   -3.9818 H   0  0  0  0  0  0  0  0  0  0  0  0
   -5.1502   -3.7019   -3.9899 H   0  0  0  0  0  0  0  0  0  0  0  0
   -7.3284   -3.8330   -5.7829 H   0  0  0  0  0  0  0  0  0  0  0  0
   -5.5613   -2.8822   -9.8420 H   0  0  0  0  0  0  0  0  0  0  0  0
   -5.0162   -1.5954   -8.7395 H   0  0  0  0  0  0  0  0  0  0  0  0
   -4.1874   -3.1706   -8.7477 H   0  0  0  0  0  0  0  0  0  0  0  0
  1  2  1  0  0  0  0
  1 23  1  0  0  0  0
  1 24  1  0  0  0  0
  1 25  1  0  0  0  0
  2  3  1  0  0  0  0
  3  8  2  0  0  0  0
  3  4  1  0  0  0  0
  4  5  2  0  0  0  0
  4 26  1  0  0  0  0
  5  6  1  0  0  0  0
  5 27  1  0  0  0  0
  6  7  2  0  0  0  0
  6 10  1  0  0  0  0
  7  8  1  0  0  0  0
  7 28  1  0  0  0  0
  8  9  1  0  0  0  0
 10 11  2  0  0  0  0
 10 12  2  0  0  0  0
 10 13  1  0  0  0  0
 13 14  2  0  0  0  0
 14 15  1  0  0  0  0
 14 16  1  0  0  0  0
 16 17  1  0  0  0  0
 16 29  1  0  0  0  0
 16 30  1  0  0  0  0
 17 18  1  0  0  0  0
 17 31  1  0  0  0  0
 17 32  1  0  0  0  0
 18 19  1  0  0  0  0
 18 33  1  0  0  0  0
 19 20  2  0  0  0  0
 19 21  1  0  0  0  0
 21 22  1  0  0  0  0
 22 34  1  0  0  0  0
 22 35  1  0  0  0  0
 22 36  1  0  0  0  0
M  CHG  1  15  -1
M  END
$$$$
ZINC36354824
 OpenBabel01252620473D

 56 59  0  0  1  0  0  0  0  0999 V2000
   -0.0184    1.5028    0.0103 C   0  0  0  0  0  0  0  0  0  0  0  0
    0.0021   -0.0041    0.0020 C   0  0  0  0  0  0  0  0  0  0  0  0
    0.0080   -0.8237   -1.1409 C   0  0  0  0  0  0  0  0  0  0  0  0
    0.0273   -2.1079   -0.7353 C   0  0  0  0  0  0  0  0  0  0  0  0
    0.0335   -2.1190    0.6064 O   0  0  0  0  0  0  0  0  0  0  0  0
    0.0230   -0.7748    1.0524 N   0  0  0  0  0  0  0  0  0  0  0  0
    0.0393   -3.3197   -1.6311 C   0  0  0  0  0  0  0  0  0  0  0  0
   -0.0053   -0.3478   -2.5707 C   0  0  0  0  0  0  0  0  0  0  0  0
    1.3752   -0.1740   -3.0418 N   0  0  0  0  0  0  0  0  0  0  0  0
    2.0439    0.9187   -2.3214 C   0  0  0  0  0  0  0  0  0  0  0  0
    3.4939    1.0277   -2.7983 C   0  0  0  0  0  0  0  0  0  0  0  0
    3.5159    1.2859   -4.2441 N   0  3  2  0  0  0  0  0  0  0  0  0
    2.8664    0.1745   -4.9516 C   0  0  0  0  0  0  0  0  0  0  0  0
    1.4112    0.0583   -4.4927 C   0  0  0  0  0  0  0  0  0  0  0  0
    4.9076    1.4084   -4.6982 C   0  0  2  0  0  0  0  0  0  0  0  0
    5.4418    0.4823   -4.4862 H   0  0  0  0  0  0  0  0  0  0  0  0
    5.5737    2.5498   -3.9738 C   0  0  0  0  0  0  0  0  0  0  0  0
    4.9587    3.5649   -3.3467 C   0  0  0  0  0  0  0  0  0  0  0  0
    5.8883    4.4099   -2.8042 N   0  0  0  0  0  0  0  0  0  0  0  0
    7.1564    3.9473   -3.0759 C   0  0  0  0  0  0  0  0  0  0  0  0
    7.0149    2.7584   -3.8151 C   0  0  0  0  0  0  0  0  0  0  0  0
    8.1483    2.0571   -4.2299 C   0  0  0  0  0  0  0  0  0  0  0  0
    9.3914    2.5278   -3.9122 C   0  0  0  0  0  0  0  0  0  0  0  0
    9.5362    3.6978   -3.1798 C   0  0  0  0  0  0  0  0  0  0  0  0
    8.4312    4.4107   -2.7683 C   0  0  0  0  0  0  0  0  0  0  0  0
    5.5801    5.6256   -2.0470 C   0  0  0  0  0  0  0  0  0  0  0  0
    5.6120    6.8150   -2.9719 C   0  0  0  0  0  0  0  0  0  0  0  0
    5.8683    6.6614   -4.1540 O   0  0  0  0  0  0  0  0  0  0  0  0
    5.3814    7.9309   -2.5381 O   0  0  0  0  0  1  0  0  0  0  0  0
    4.9305    1.6733   -6.1816 C   0  0  0  0  0  0  0  0  0  0  0  0
    4.0103    2.2758   -6.7075 O   0  0  0  0  0  0  0  0  0  0  0  0
    5.8692    1.2850   -6.8557 O   0  0  0  0  0  1  0  0  0  0  0  0
    1.0042    1.8801    0.0026 H   0  0  0  0  0  0  0  0  0  0  0  0
   -0.5455    1.8639   -0.8728 H   0  0  0  0  0  0  0  0  0  0  0  0
   -0.5286    1.8543    0.9071 H   0  0  0  0  0  0  0  0  0  0  0  0
    1.0697   -3.5980   -1.8521 H   0  0  0  0  0  0  0  0  0  0  0  0
   -0.4610   -4.1477   -1.1290 H   0  0  0  0  0  0  0  0  0  0  0  0
   -0.4822   -3.0898   -2.5603 H   0  0  0  0  0  0  0  0  0  0  0  0
   -0.5120   -1.0846   -3.1941 H   0  0  0  0  0  0  0  0  0  0  0  0
   -0.5327    0.6041   -2.6319 H   0  0  0  0  0  0  0  0  0  0  0  0
    1.5245    1.8563   -2.5194 H   0  0  0  0  0  0  0  0  0  0  0  0
    2.0275    0.7123   -1.2513 H   0  0  0  0  0  0  0  0  0  0  0  0
    3.9876    1.8468   -2.2754 H   0  0  0  0  0  0  0  0  0  0  0  0
    4.0167    0.0948   -2.5878 H   0  0  0  0  0  0  0  0  0  0  0  0
    2.8950    0.3610   -6.0251 H   0  0  0  0  0  0  0  0  0  0  0  0
    3.3925   -0.7541   -4.7301 H   0  0  0  0  0  0  0  0  0  0  0  0
    0.9333   -0.7757   -5.0065 H   0  0  0  0  0  0  0  0  0  0  0  0
    0.8814    0.9818   -4.7264 H   0  0  0  0  0  0  0  0  0  0  0  0
    3.8887    3.6955   -3.2804 H   0  0  0  0  0  0  0  0  0  0  0  0
    8.0432    1.1455   -4.7995 H   0  0  0  0  0  0  0  0  0  0  0  0
   10.2680    1.9848   -4.2334 H   0  0  0  0  0  0  0  0  0  0  0  0
   10.5252    4.0568   -2.9360 H   0  0  0  0  0  0  0  0  0  0  0  0
    8.5543    5.3194   -2.1978 H   0  0  0  0  0  0  0  0  0  0  0  0
    4.5882    5.5362   -1.6042 H   0  0  0  0  0  0  0  0  0  0  0  0
    6.3198    5.7593   -1.2577 H   0  0  0  0  0  0  0  0  0  0  0  0
    3.0218    2.1435   -4.4400 H   0  0  0  0  0  0  0  0  0  0  0  0
  1  2  1  0  0  0  0
  1 33  1  0  0  0  0
  1 34  1  0  0  0  0
  1 35  1  0  0  0  0
  2  6  2  0  0  0  0
  2  3  1  0  0  0  0
  3  4  2  0  0  0  0
  3  8  1  0  0  0  0
  4  5  1  0  0  0  0
  4  7  1  0  0  0  0
  5  6  1  0  0  0  0
  7 36  1  0  0  0  0
  7 37  1  0  0  0  0
  7 38  1  0  0  0  0
  8  9  1  0  0  0  0
  8 39  1  0  0  0  0
  8 40  1  0  0  0  0
  9 14  1  0  0  0  0
  9 10  1  0  0  0  0
 10 11  1  0  0  0  0
 10 41  1  0  0  0  0
 10 42  1  0  0  0  0
 11 12  1  0  0  0  0
 11 43  1  0  0  0  0
 11 44  1  0  0  0  0
 12 13  1  0  0  0  0
 12 15  1  0  0  0  0
 12 56  1  6  0  0  0
 13 14  1  0  0  0  0
 13 45  1  0  0  0  0
 13 46  1  0  0  0  0
 14 47  1  0  0  0  0
 14 48  1  0  0  0  0
 15 16  1  1  0  0  0
 15 17  1  0  0  0  0
 15 30  1  0  0  0  0
 17 21  1  0  0  0  0
 17 18  2  0  0  0  0
 18 19  1  0  0  0  0
 18 49  1  0  0  0  0
 19 20  1  0  0  0  0
 19 26  1  0  0  0  0
 20 25  2  0  0  0  0
 20 21  1  0  0  0  0
 21 22  2  0  0  0  0
 22 23  1  0  0  0  0
 22 50  1  0  0  0  0
 23 24  2  0  0  0  0
 23 51  1  0  0  0  0
 24 25  1  0  0  0  0
 24 52  1  0  0  0  0
 25 53  1  0  0  0  0
 26 27  1  0  0  0  0
 26 54  1  0  0  0  0
 26 55  1  0  0  0  0
 27 28  2  0  0  0  0
 27 29  1  0  0  0  0
 30 31  2  0  0  0  0
 30 32  1  0  0  0  0
M  CHG  1  12   1
M  END
$$$$
ZINC21935471
 OpenBabel01252620473D

 51 53  0  0  0  0  0  0  0  0999 V2000
   -3.0948   -7.0871    1.9615 C   0  0  0  0  0  0  0  0  0  0  0  0
   -3.1861   -6.4323    0.6542 N   0  0  0  0  0  0  0  0  0  0  0  0
   -3.0509   -7.2226   -0.5719 C   0  0  0  0  0  0  0  0  0  0  0  0
   -3.4019   -5.0545    0.5768 C   0  0  0  0  0  0  0  0  0  0  0  0
   -3.5303   -4.3037    1.7384 C   0  0  0  0  0  0  0  0  0  0  0  0
   -3.7432   -2.9415    1.6582 C   0  0  0  0  0  0  0  0  0  0  0  0
   -3.8286   -2.3249    0.4234 C   0  0  0  0  0  0  0  0  0  0  0  0
   -3.7069   -3.0703   -0.7350 C   0  0  0  0  0  0  0  0  0  0  0  0
   -3.4882   -4.4320   -0.6620 C   0  0  0  0  0  0  0  0  0  0  0  0
   -4.0611   -0.8383    0.3398 C   0  0  0  0  0  0  0  0  0  0  0  0
   -2.7719   -0.1425    0.3252 N   0  0  0  0  0  0  0  0  0  0  0  0
   -2.7329    1.2028    0.2540 C   0  0  0  0  0  0  0  0  0  0  0  0
   -3.7675    1.8388    0.2019 O   0  0  0  0  0  0  0  0  0  0  0  0
   -1.4319    1.9049    0.2393 C   0  0  0  0  0  0  0  0  0  0  0  0
   -0.2420    1.1774    0.2990 C   0  0  0  0  0  0  0  0  0  0  0  0
    0.9685    1.8383    0.2791 C   0  0  0  0  0  0  0  0  0  0  0  0
    1.0050    3.2197    0.2059 C   0  0  0  0  0  0  0  0  0  0  0  0
   -0.1706    3.9469    0.1522 C   0  0  0  0  0  0  0  0  0  0  0  0
   -1.3882    3.2982    0.1719 C   0  0  0  0  0  0  0  0  0  0  0  0
   -0.1129    5.7055    0.0592 S   0  0  0  0  0  0  0  0  0  0  0  0
   -1.3512    6.1801    0.5698 O   0  0  0  0  0  0  0  0  0  0  0  0
    1.1380    6.1003    0.6056 O   0  0  0  0  0  0  0  0  0  0  0  0
   -0.0769    6.1100   -1.5463 N   0  0  0  0  0  2  0  0  0  0  0  0
   -1.1309    5.7368   -2.3847 C   0  0  0  0  0  0  0  0  0  0  0  0
   -2.4332    5.7249   -1.9024 C   0  0  0  0  0  0  0  0  0  0  0  0
   -3.4732    5.3607   -2.7351 C   0  0  0  0  0  0  0  0  0  0  0  0
   -3.2183    4.9974   -4.0449 C   0  0  0  0  0  0  0  0  0  0  0  0
   -1.9226    5.0028   -4.5276 C   0  0  0  0  0  0  0  0  0  0  0  0
   -0.8775    5.3712   -3.7015 C   0  0  0  0  0  0  0  0  0  0  0  0
    0.7492    5.3768   -4.3076 Cl  0  0  0  0  0  0  0  0  0  0  0  0
   -3.2198   -6.3373    2.7566 H   0  0  0  0  0  0  0  0  0  0  0  0
   -2.1108   -7.5683    2.0626 H   0  0  0  0  0  0  0  0  0  0  0  0
   -3.8853   -7.8473    2.0468 H   0  0  0  0  0  0  0  0  0  0  0  0
   -3.1470   -6.5621   -1.4463 H   0  0  0  0  0  0  0  0  0  0  0  0
   -3.8393   -7.9890   -0.6029 H   0  0  0  0  0  0  0  0  0  0  0  0
   -2.0649   -7.7100   -0.5871 H   0  0  0  0  0  0  0  0  0  0  0  0
   -3.4641   -4.7846    2.7031 H   0  0  0  0  0  0  0  0  0  0  0  0
   -3.8428   -2.3571    2.5610 H   0  0  0  0  0  0  0  0  0  0  0  0
   -3.7789   -2.5864   -1.6979 H   0  0  0  0  0  0  0  0  0  0  0  0
   -3.3889   -5.0128   -1.5671 H   0  0  0  0  0  0  0  0  0  0  0  0
   -4.6142   -0.6050   -0.5820 H   0  0  0  0  0  0  0  0  0  0  0  0
   -4.6457   -0.5090    1.2115 H   0  0  0  0  0  0  0  0  0  0  0  0
   -1.8357   -0.7181    0.3724 H   0  0  0  0  0  0  0  0  0  0  0  0
   -0.2691    0.0993    0.3562 H   0  0  0  0  0  0  0  0  0  0  0  0
    1.8899    1.2764    0.3204 H   0  0  0  0  0  0  0  0  0  0  0  0
    1.9555    3.7324    0.1902 H   0  0  0  0  0  0  0  0  0  0  0  0
   -2.3053    3.8670    0.1299 H   0  0  0  0  0  0  0  0  0  0  0  0
   -2.6329    6.0038   -0.8784 H   0  0  0  0  0  0  0  0  0  0  0  0
   -4.4865    5.3550   -2.3614 H   0  0  0  0  0  0  0  0  0  0  0  0
   -4.0331    4.7085   -4.6921 H   0  0  0  0  0  0  0  0  0  0  0  0
   -1.7269    4.7185   -5.5510 H   0  0  0  0  0  0  0  0  0  0  0  0
  1  2  1  0  0  0  0
  1 31  1  0  0  0  0
  1 32  1  0  0  0  0
  1 33  1  0  0  0  0
  2  3  1  0  0  0  0
  2  4  1  0  0  0  0
  3 34  1  0  0  0  0
  3 35  1  0  0  0  0
  3 36  1  0  0  0  0
  4  9  2  0  0  0  0
  4  5  1  0  0  0  0
  5  6  2  0  0  0  0
  5 37  1  0  0  0  0
  6  7  1  0  0  0  0
  6 38  1  0  0  0  0
  7  8  2  0  0  0  0
  7 10  1  0  0  0  0
  8  9  1  0  0  0  0
  8 39  1  0  0  0  0
  9 40  1  0  0  0  0
 10 11  1  0  0  0  0
 10 41  1  0  0  0  0
 10 42  1  0  0  0  0
 11 12  1  0  0  0  0
 11 43  1  0  0  0  0
 12 13  2  0  0  0  0
 12 14  1  0  0  0  0
 14 19  2  0  0  0  0
 14 15  1  0  0  0  0
 15 16  2  0  0  0  0
 15 44  1  0  0  0  0
 16 17  1  0  0  0  0
 16 45  1  0  0  0  0
 17 18  2  0  0  0  0
 17 46  1  0  0  0  0
 18 19  1  0  0  0  0
 18 20  1  0  0  0  0
 19 47  1  0  0  0  0
 20 21  2  0  0  0  0
 20 22  2  0  0  0  0
 20 23  1  0  0  0  0
 23 24  1  0  0  0  0
 24 29  2  0  0  0  0
 24 25  1  0  0  0  0
 25 26  2  0  0  0  0
 25 48  1  0  0  0  0
 26 27  1  0  0  0  0
 26 49  1  0  0  0  0
 27 28  2  0  0  0  0
 27 50  1  0  0  0  0
 28 29  1  0  0  0  0
 28 51  1  0  0  0  0
 29 30  1  0  0  0  0
M  END
$$$$
ZINC26542118
 OpenBabel01252620473D

 37 39  0  0  0  0  0  0  0  0999 V2000
   -0.3729    1.4378   -2.1039 C   0  0  0  0  0  0  0  0  0  0  0  0
    0.5002    1.0504   -0.9383 C   0  0  0  0  0  0  0  0  0  0  0  0
    1.7613    1.6053   -0.8081 C   0  0  0  0  0  0  0  0  0  0  0  0
    2.5655    1.2555    0.2565 C   0  0  0  0  0  0  0  0  0  0  0  0
    2.1050    0.3381    1.2033 C   0  0  0  0  0  0  0  0  0  0  0  0
    0.8316   -0.2175    1.0660 C   0  0  0  0  0  0  0  0  0  0  0  0
    0.0373    0.1420   -0.0032 C   0  0  0  0  0  0  0  0  0  0  0  0
   -1.5702   -0.5579   -0.1785 S   0  0  0  0  0  0  0  0  0  0  0  0
   -1.7528   -1.4369    0.9230 O   0  0  0  0  0  0  0  0  0  0  0  0
   -2.4556    0.5205   -0.4475 O   0  0  0  0  0  0  0  0  0  0  0  0
   -1.5475   -1.5021   -1.5388 N   0  0  0  0  0  2  0  0  0  0  0  0
   -0.6605   -2.5786   -1.6275 C   0  0  0  0  0  0  0  0  0  0  0  0
   -0.3569   -3.3252   -0.4978 C   0  0  0  0  0  0  0  0  0  0  0  0
    0.5158   -4.3925   -0.5893 C   0  0  0  0  0  0  0  0  0  0  0  0
    1.0974   -4.7135   -1.8025 C   0  0  0  0  0  0  0  0  0  0  0  0
    0.8056   -3.9717   -2.9313 C   0  0  0  0  0  0  0  0  0  0  0  0
   -0.0735   -2.9022   -2.8503 C   0  0  0  0  0  0  0  0  0  0  0  0
   -0.3719   -2.1484   -3.9954 N   0  0  0  0  0  0  0  0  0  0  0  0
    0.1179   -2.3360   -5.2360 C   0  0  0  0  0  0  0  0  0  0  0  0
   -0.4065   -1.4289   -6.0202 N   0  0  0  0  0  0  0  0  0  0  0  0
   -1.2238   -0.6434   -5.3199 C   0  0  0  0  0  0  0  0  0  0  0  0
   -1.2360   -1.0440   -4.0751 N   0  0  0  0  0  0  0  0  0  0  0  0
    2.9609   -0.0417    2.3459 C   0  0  0  0  0  0  0  0  0  0  0  0
    2.5572   -0.8390    3.1686 O   0  0  0  0  0  0  0  0  0  0  0  0
    4.1892    0.4962    2.4754 O   0  0  0  0  0  1  0  0  0  0  0  0
    0.1596    2.1642   -2.7354 H   0  0  0  0  0  0  0  0  0  0  0  0
   -1.3038    1.8895   -1.7305 H   0  0  0  0  0  0  0  0  0  0  0  0
   -0.6118    0.5424   -2.6966 H   0  0  0  0  0  0  0  0  0  0  0  0
    2.1164    2.3141   -1.5415 H   0  0  0  0  0  0  0  0  0  0  0  0
    3.5491    1.6898    0.3573 H   0  0  0  0  0  0  0  0  0  0  0  0
    0.4674   -0.9236    1.7975 H   0  0  0  0  0  0  0  0  0  0  0  0
   -0.8062   -3.0748    0.4519 H   0  0  0  0  0  0  0  0  0  0  0  0
    0.7476   -4.9754    0.2899 H   0  0  0  0  0  0  0  0  0  0  0  0
    1.7821   -5.5462   -1.8676 H   0  0  0  0  0  0  0  0  0  0  0  0
    1.2620   -4.2250   -3.8768 H   0  0  0  0  0  0  0  0  0  0  0  0
    0.8187   -3.1025   -5.5323 H   0  0  0  0  0  0  0  0  0  0  0  0
   -1.7859    0.1892   -5.7164 H   0  0  0  0  0  0  0  0  0  0  0  0
  1  2  1  0  0  0  0
  1 26  1  0  0  0  0
  1 27  1  0  0  0  0
  1 28  1  0  0  0  0
  2  7  2  0  0  0  0
  2  3  1  0  0  0  0
  3  4  2  0  0  0  0
  3 29  1  0  0  0  0
  4  5  1  0  0  0  0
  4 30  1  0  0  0  0
  5  6  2  0  0  0  0
  5 23  1  0  0  0  0
  6  7  1  0  0  0  0
  6 31  1  0  0  0  0
  7  8  1  0  0  0  0
  8  9  2  0  0  0  0
  8 10  2  0  0  0  0
  8 11  1  0  0  0  0
 11 12  1  0  0  0  0
 12 17  2  0  0  0  0
 12 13  1  0  0  0  0
 13 14  2  0  0  0  0
 13 32  1  0  0  0  0
 14 15  1  0  0  0  0
 14 33  1  0  0  0  0
 15 16  2  0  0  0  0
 15 34  1  0  0  0  0
 16 17  1  0  0  0  0
 16 35  1  0  0  0  0
 17 18  1  0  0  0  0
 18 22  1  0  0  0  0
 18 19  1  0  0  0  0
 19 20  2  0  0  0  0
 19 36  1  0  0  0  0
 20 21  1  0  0  0  0
 21 22  2  0  0  0  0
 21 37  1  0  0  0  0
 23 24  2  0  0  0  0
 23 25  1  0  0  0  0
M  END
$$$$
ZINC59885313
 OpenBabel01252620473D

 48 51  0  0  0  0  0  0  0  0999 V2000
   -2.3378   -1.7598   -1.2145 C   0  0  0  0  0  0  0  0  0  0  0  0
   -1.0177   -1.4248   -0.5173 C   0  0  0  0  0  0  0  0  0  0  0  0
   -0.6198   -2.7264    0.6818 S   0  0  0  0  0  0  0  0  0  0  0  0
   -1.5534   -2.7072    1.7529 O   0  0  0  0  0  0  0  0  0  0  0  0
   -0.3180   -3.9392    0.0056 O   0  0  0  0  0  0  0  0  0  0  0  0
    0.8140   -2.2541    1.3625 N   0  0  0  0  0  2  0  0  0  0  0  0
    1.4157   -3.0461    2.3463 C   0  0  0  0  0  0  0  0  0  0  0  0
    0.8134   -4.2313    2.7481 C   0  0  0  0  0  0  0  0  0  0  0  0
    1.4073   -5.0127    3.7191 C   0  0  0  0  0  0  0  0  0  0  0  0
    2.6064   -4.6135    4.2942 C   0  0  0  0  0  0  0  0  0  0  0  0
    3.2084   -3.4284    3.8930 C   0  0  0  0  0  0  0  0  0  0  0  0
    2.6182   -2.6500    2.9173 C   0  0  0  0  0  0  0  0  0  0  0  0
    3.2089   -5.4067    5.2802 N   0  0  0  0  0  0  0  0  0  0  0  0
    3.0911   -6.7484    5.2307 C   0  0  0  0  0  0  0  0  0  0  0  0
    2.5465   -7.2749    4.2834 O   0  0  0  0  0  0  0  0  0  0  0  0
    3.6361   -7.5945    6.3524 C   0  0  0  0  0  0  0  0  0  0  0  0
    3.3777   -9.0492    6.0556 C   0  0  0  0  0  0  0  0  0  0  0  0
    2.3372   -9.7867    6.4774 C   0  0  0  0  0  0  0  0  0  0  0  0
    2.4477  -11.0418    6.0115 O   0  0  0  0  0  0  0  0  0  0  0  0
    3.5625  -11.1819    5.2657 C   0  0  0  0  0  0  0  0  0  0  0  0
    4.2053   -9.9406    5.2455 C   0  0  0  0  0  0  0  0  0  0  0  0
    5.4487   -9.7926    4.5002 C   0  0  0  0  0  0  0  0  0  0  0  0
    6.1384   -8.5767    4.4470 C   0  0  0  0  0  0  0  0  0  0  0  0
    7.2989   -8.4885    3.7362 C   0  0  0  0  0  0  0  0  0  0  0  0
    7.8085   -9.5938    3.0608 C   0  0  0  0  0  0  0  0  0  0  0  0
    7.1621  -10.7924    3.0913 C   0  0  0  0  0  0  0  0  0  0  0  0
    5.9650  -10.9192    3.8138 C   0  0  0  0  0  0  0  0  0  0  0  0
    5.2702  -12.1426    3.8691 C   0  0  0  0  0  0  0  0  0  0  0  0
    4.1184  -12.2641    4.5742 C   0  0  0  0  0  0  0  0  0  0  0  0
   -3.1338   -1.8261   -0.4728 H   0  0  0  0  0  0  0  0  0  0  0  0
   -2.5769   -0.9776   -1.9350 H   0  0  0  0  0  0  0  0  0  0  0  0
   -2.2432   -2.7143   -1.7323 H   0  0  0  0  0  0  0  0  0  0  0  0
   -0.2217   -1.3584   -1.2590 H   0  0  0  0  0  0  0  0  0  0  0  0
   -1.1123   -0.4703    0.0005 H   0  0  0  0  0  0  0  0  0  0  0  0
   -0.1196   -4.5415    2.3013 H   0  0  0  0  0  0  0  0  0  0  0  0
    0.9390   -5.9344    4.0316 H   0  0  0  0  0  0  0  0  0  0  0  0
    4.1407   -3.1177    4.3410 H   0  0  0  0  0  0  0  0  0  0  0  0
    3.0891   -1.7308    2.6015 H   0  0  0  0  0  0  0  0  0  0  0  0
    3.7106   -4.9900    5.9982 H   0  0  0  0  0  0  0  0  0  0  0  0
    4.7092   -7.4276    6.4451 H   0  0  0  0  0  0  0  0  0  0  0  0
    3.1439   -7.3212    7.2858 H   0  0  0  0  0  0  0  0  0  0  0  0
    1.5317   -9.4246    7.0990 H   0  0  0  0  0  0  0  0  0  0  0  0
    5.7535   -7.7116    4.9664 H   0  0  0  0  0  0  0  0  0  0  0  0
    7.8292   -7.5486    3.6965 H   0  0  0  0  0  0  0  0  0  0  0  0
    8.7294   -9.4995    2.5044 H   0  0  0  0  0  0  0  0  0  0  0  0
    7.5686  -11.6415    2.5620 H   0  0  0  0  0  0  0  0  0  0  0  0
    5.6647  -13.0009    3.3455 H   0  0  0  0  0  0  0  0  0  0  0  0
    3.6109  -13.2173    4.5929 H   0  0  0  0  0  0  0  0  0  0  0  0
  1  2  1  0  0  0  0
  1 30  1  0  0  0  0
  1 31  1  0  0  0  0
  1 32  1  0  0  0  0
  2  3  1  0  0  0  0
  2 33  1  0  0  0  0
  2 34  1  0  0  0  0
  3  4  2  0  0  0  0
  3  5  2  0  0  0  0
  3  6  1  0  0  0  0
  6  7  1  0  0  0  0
  7 12  2  0  0  0  0
  7  8  1  0  0  0  0
  8  9  2  0  0  0  0
  8 35  1  0  0  0  0
  9 10  1  0  0  0  0
  9 36  1  0  0  0  0
 10 11  2  0  0  0  0
 10 13  1  0  0  0  0
 11 12  1  0  0  0  0
 11 37  1  0  0  0  0
 12 38  1  0  0  0  0
 13 14  1  0  0  0  0
 13 39  1  0  0  0  0
 14 15  2  0  0  0  0
 14 16  1  0  0  0  0
 16 17  1  0  0  0  0
 16 40  1  0  0  0  0
 16 41  1  0  0  0  0
 17 21  1  0  0  0  0
 17 18  2  0  0  0  0
 18 19  1  0  0  0  0
 18 42  1  0  0  0  0
 19 20  1  0  0  0  0
 20 29  2  0  0  0  0
 20 21  1  0  0  0  0
 21 22  2  0  0  0  0
 22 27  1  0  0  0  0
 22 23  1  0  0  0  0
 23 24  2  0  0  0  0
 23 43  1  0  0  0  0
 24 25  1  0  0  0  0
 24 44  1  0  0  0  0
 25 26  2  0  0  0  0
 25 45  1  0  0  0  0
 26 27  1  0  0  0  0
 26 46  1  0  0  0  0
 27 28  2  0  0  0  0
 28 29  1  0  0  0  0
 28 47  1  0  0  0  0
 29 48  1  0  0  0  0
M  END
$$$$
ZINC61149581
 OpenBabel01252620473D

 35 35  0  0  0  0  0  0  0  0999 V2000
   -0.3965    1.1460    0.0893 C   0  0  0  0  0  0  0  0  0  0  0  0
   -0.0635   -0.3460    0.0265 C   0  0  0  0  0  0  0  0  0  0  0  0
    0.5391   -0.6576   -1.2720 N   0  0  0  0  0  0  0  0  0  0  0  0
    1.8785   -0.7533   -1.3877 C   0  0  0  0  0  0  0  0  0  0  0  0
    2.3856   -0.8906   -2.4840 O   0  0  0  0  0  0  0  0  0  0  0  0
    2.7303   -0.6915   -0.1823 C   0  0  0  0  0  0  0  0  0  0  0  0
    2.3716    0.1312    0.8879 C   0  0  0  0  0  0  0  0  0  0  0  0
    3.1699    0.1852    2.0100 C   0  0  0  0  0  0  0  0  0  0  0  0
    4.3275   -0.5755    2.0777 C   0  0  0  0  0  0  0  0  0  0  0  0
    4.6882   -1.3938    1.0184 C   0  0  0  0  0  0  0  0  0  0  0  0
    3.8939   -1.4597   -0.1065 C   0  0  0  0  0  0  0  0  0  0  0  0
    5.9251   -2.2028    1.0977 N   0  0  0  0  0  4  0  0  0  0  0  0
    6.2407   -2.9168    0.1745 O   0  0  0  0  0  0  0  0  0  0  0  0
    6.6199   -2.1497    2.0857 O   0  5  0  0  0  0  0  0  0  0  0  0
    5.1068   -0.5185    3.1799 F   0  0  0  0  0  0  0  0  0  0  0  0
   -0.3141   -0.8652   -2.4446 C   0  0  0  0  0  0  0  0  0  0  0  0
   -1.7836   -0.8087   -2.0225 C   0  0  0  0  0  0  0  0  0  0  0  0
   -0.0375    0.2298   -3.4768 C   0  0  0  0  0  0  0  0  0  0  0  0
   -0.0168   -2.2129   -3.0500 C   0  0  0  0  0  0  0  0  0  0  0  0
    0.7529   -2.9757   -2.4913 O   0  0  0  0  0  0  0  0  0  0  0  0
   -0.5459   -2.5403   -4.0984 O   0  0  0  0  0  1  0  0  0  0  0  0
    0.5219    1.7271    0.0058 H   0  0  0  0  0  0  0  0  0  0  0  0
   -1.0655    1.4038   -0.7318 H   0  0  0  0  0  0  0  0  0  0  0  0
   -0.8832    1.3700    1.0385 H   0  0  0  0  0  0  0  0  0  0  0  0
    0.6385   -0.5954    0.8221 H   0  0  0  0  0  0  0  0  0  0  0  0
   -0.9767   -0.9277    0.1522 H   0  0  0  0  0  0  0  0  0  0  0  0
    1.4705    0.7243    0.8360 H   0  0  0  0  0  0  0  0  0  0  0  0
    2.8937    0.8213    2.8379 H   0  0  0  0  0  0  0  0  0  0  0  0
    4.1734   -2.1009   -0.9294 H   0  0  0  0  0  0  0  0  0  0  0  0
   -1.9987    0.1661   -1.5847 H   0  0  0  0  0  0  0  0  0  0  0  0
   -2.4185   -0.9631   -2.8950 H   0  0  0  0  0  0  0  0  0  0  0  0
   -1.9807   -1.5887   -1.2872 H   0  0  0  0  0  0  0  0  0  0  0  0
    1.0094    0.1895   -3.7775 H   0  0  0  0  0  0  0  0  0  0  0  0
   -0.6723    0.0753   -4.3493 H   0  0  0  0  0  0  0  0  0  0  0  0
   -0.2525    1.2045   -3.0390 H   0  0  0  0  0  0  0  0  0  0  0  0
  1  2  1  0  0  0  0
  1 22  1  0  0  0  0
  1 23  1  0  0  0  0
  1 24  1  0  0  0  0
  2  3  1  0  0  0  0
  2 25  1  0  0  0  0
  2 26  1  0  0  0  0
  3  4  1  0  0  0  0
  3 16  1  0  0  0  0
  4  5  2  0  0  0  0
  4  6  1  0  0  0  0
  6 11  2  0  0  0  0
  6  7  1  0  0  0  0
  7  8  2  0  0  0  0
  7 27  1  0  0  0  0
  8  9  1  0  0  0  0
  8 28  1  0  0  0  0
  9 10  2  0  0  0  0
  9 15  1  0  0  0  0
 10 11  1  0  0  0  0
 10 12  1  0  0  0  0
 11 29  1  0  0  0  0
 12 13  2  0  0  0  0
 12 14  1  0  0  0  0
 16 17  1  0  0  0  0
 16 18  1  0  0  0  0
 16 19  1  0  0  0  0
 17 30  1  0  0  0  0
 17 31  1  0  0  0  0
 17 32  1  0  0  0  0
 18 33  1  0  0  0  0
 18 34  1  0  0  0  0
 18 35  1  0  0  0  0
 19 20  2  0  0  0  0
 19 21  1  0  0  0  0
M  CHG  1  14  -1
M  END
$$$$
ZINC52307132
 OpenBabel01252620473D

 32 33  0  0  0  0  0  0  0  0999 V2000
    0.4091    1.4152   -0.0414 C   0  0  0  0  0  0  0  0  0  0  0  0
    0.4541   -0.0127   -0.0729 O   0  0  0  0  0  0  0  0  0  0  0  0
    1.1083   -0.5986    1.0544 C   0  0  0  0  0  0  0  0  0  0  0  0
    1.0976   -2.0994    0.9174 C   0  0  0  0  0  0  0  0  0  0  0  0
    0.5431   -2.8181   -0.1450 C   0  0  0  0  0  0  0  0  0  0  0  0
    0.7367   -4.1443    0.1013 C   0  0  0  0  0  0  0  0  0  0  0  0
    1.3957   -4.2462    1.2885 N   0  0  0  0  0  0  0  0  0  0  0  0
    1.6110   -2.9487    1.7706 N   0  0  0  0  0  0  0  0  0  0  0  0
    1.7924   -5.4363    1.9138 C   0  0  0  0  0  0  0  0  0  0  0  0
    0.9415   -6.5335    1.9239 C   0  0  0  0  0  0  0  0  0  0  0  0
    1.3348   -7.7052    2.5403 C   0  0  0  0  0  0  0  0  0  0  0  0
    2.5756   -7.7861    3.1478 C   0  0  0  0  0  0  0  0  0  0  0  0
    3.4254   -6.6939    3.1390 C   0  0  0  0  0  0  0  0  0  0  0  0
    3.0390   -5.5219    2.5190 C   0  0  0  0  0  0  0  0  0  0  0  0
    3.0665   -9.2599    3.9227 Cl  0  0  0  0  0  0  0  0  0  0  0  0
    0.2274   -5.4813   -0.9270 S   0  0  0  0  0  0  0  0  0  0  0  0
   -0.1720   -4.6902   -2.5098 C   0  0  0  0  0  0  0  0  0  0  0  0
   -0.5065   -5.7480   -3.5298 C   0  0  0  0  0  0  0  0  0  0  0  0
   -0.4781   -6.9263   -3.2179 O   0  0  0  0  0  0  0  0  0  0  0  0
   -0.8055   -5.4254   -4.6669 O   0  0  0  0  0  1  0  0  0  0  0  0
    1.4248    1.8103   -0.0177 H   0  0  0  0  0  0  0  0  0  0  0  0
   -0.1029    1.7823   -0.9309 H   0  0  0  0  0  0  0  0  0  0  0  0
   -0.1287    1.7423    0.8485 H   0  0  0  0  0  0  0  0  0  0  0  0
    2.1384   -0.2454    1.1008 H   0  0  0  0  0  0  0  0  0  0  0  0
    0.5849   -0.3134    1.9670 H   0  0  0  0  0  0  0  0  0  0  0  0
    0.0486   -2.3973   -1.0080 H   0  0  0  0  0  0  0  0  0  0  0  0
   -0.0272   -6.4706    1.4506 H   0  0  0  0  0  0  0  0  0  0  0  0
    0.6733   -8.5589    2.5485 H   0  0  0  0  0  0  0  0  0  0  0  0
    4.3932   -6.7595    3.6138 H   0  0  0  0  0  0  0  0  0  0  0  0
    3.7044   -4.6712    2.5086 H   0  0  0  0  0  0  0  0  0  0  0  0
   -1.0278   -4.0279   -2.3792 H   0  0  0  0  0  0  0  0  0  0  0  0
    0.6857   -4.1122   -2.8537 H   0  0  0  0  0  0  0  0  0  0  0  0
  1  2  1  0  0  0  0
  1 21  1  0  0  0  0
  1 22  1  0  0  0  0
  1 23  1  0  0  0  0
  2  3  1  0  0  0  0
  3  4  1  0  0  0  0
  3 24  1  0  0  0  0
  3 25  1  0  0  0  0
  4  8  2  0  0  0  0
  4  5  1  0  0  0  0
  5  6  2  0  0  0  0
  5 26  1  0  0  0  0
  6  7  1  0  0  0  0
  6 16  1  0  0  0  0
  7  8  1  0  0  0  0
  7  9  1  0  0  0  0
  9 14  2  0  0  0  0
  9 10  1  0  0  0  0
 10 11  2  0  0  0  0
 10 27  1  0  0  0  0
 11 12  1  0  0  0  0
 11 28  1  0  0  0  0
 12 13  2  0  0  0  0
 12 15  1  0  0  0  0
 13 14  1  0  0  0  0
 13 29  1  0  0  0  0
 14 30  1  0  0  0  0
 16 17  1  0  0  0  0
 17 18  1  0  0  0  0
 17 31  1  0  0  0  0
 17 32  1  0  0  0  0
 18 19  2  0  0  0  0
 18 20  1  0  0  0  0
M  END
$$$$
ZINC44930725
 OpenBabel01252620473D

 24 25  0  0  0  0  0  0  0  0999 V2000
    1.6361   -0.5615   -1.4499 C   0  0  0  0  0  0  0  0  0  0  0  0
    2.7137    0.2846   -1.2654 C   0  0  0  0  0  0  0  0  0  0  0  0
    2.6544    1.2816   -0.3102 C   0  0  0  0  0  0  0  0  0  0  0  0
    1.5164    1.4333    0.4619 C   0  0  0  0  0  0  0  0  0  0  0  0
    0.4382    0.5873    0.2776 C   0  0  0  0  0  0  0  0  0  0  0  0
    0.4980   -0.4105   -0.6786 C   0  0  0  0  0  0  0  0  0  0  0  0
   -0.9762   -1.5675   -0.9316 Br  0  0  0  0  0  0  0  0  0  0  0  0
    1.4356    2.7972    1.7693 Br  0  0  0  0  0  0  0  0  0  0  0  0
    4.0285    2.3592   -0.0751 S   0  0  0  0  0  0  0  0  0  0  0  0
    5.0429    1.9250   -0.9704 O   0  0  0  0  0  0  0  0  0  0  0  0
    3.5135    3.6835   -0.0917 O   0  0  0  0  0  0  0  0  0  0  0  0
    4.6027    2.0938    1.4553 N   0  0  0  0  0  0  0  0  0  0  0  0
    5.1552    0.7851    1.8137 C   0  0  0  0  0  0  0  0  0  0  0  0
    5.9526    0.9080    3.0865 C   0  0  0  0  0  0  0  0  0  0  0  0
    7.2432    1.1915    3.1860 N   0  0  0  0  0  2  0  0  0  0  0  0
    7.5437    1.2049    4.4398 N   0  0  0  0  0  0  0  0  0  0  0  0
    6.4876    0.9401    5.1270 N   0  0  0  0  0  0  0  0  0  0  0  0
    5.4970    0.7591    4.3218 N   0  0  0  0  0  0  0  0  0  0  0  0
    1.6812   -1.3377   -2.1996 H   0  0  0  0  0  0  0  0  0  0  0  0
    3.6024    0.1661   -1.8676 H   0  0  0  0  0  0  0  0  0  0  0  0
   -0.4502    0.7052    0.8803 H   0  0  0  0  0  0  0  0  0  0  0  0
    4.5732    2.8048    2.1145 H   0  0  0  0  0  0  0  0  0  0  0  0
    4.3413    0.0754    1.9620 H   0  0  0  0  0  0  0  0  0  0  0  0
    5.8033    0.4323    1.0115 H   0  0  0  0  0  0  0  0  0  0  0  0
  1  6  2  0  0  0  0
  1  2  1  0  0  0  0
  1 19  1  0  0  0  0
  2  3  2  0  0  0  0
  2 20  1  0  0  0  0
  3  4  1  0  0  0  0
  3  9  1  0  0  0  0
  4  5  2  0  0  0  0
  4  8  1  0  0  0  0
  5  6  1  0  0  0  0
  5 21  1  0  0  0  0
  6  7  1  0  0  0  0
  9 10  2  0  0  0  0
  9 11  2  0  0  0  0
  9 12  1  0  0  0  0
 12 13  1  0  0  0  0
 12 22  1  0  0  0  0
 13 14  1  0  0  0  0
 13 23  1  0  0  0  0
 13 24  1  0  0  0  0
 14 18  2  0  0  0  0
 14 15  1  0  0  0  0
 15 16  1  0  0  0  0
 16 17  2  0  0  0  0
 17 18  1  0  0  0  0
M  END
$$$$
ZINC19813829
 OpenBabel01252620473D

 42 45  0  0  0  0  0  0  0  0999 V2000
    2.5833    1.6830    1.1757 C   0  0  0  0  0  0  0  0  0  0  0  0
    3.9077    2.0415    1.3691 C   0  0  0  0  0  0  0  0  0  0  0  0
    4.9006    1.0830    1.3626 C   0  0  0  0  0  0  0  0  0  0  0  0
    4.5739   -0.2584    1.1603 C   0  0  0  0  0  0  0  0  0  0  0  0
    3.2254   -0.6234    0.9634 C   0  0  0  0  0  0  0  0  0  0  0  0
    2.2377    0.3623    0.9737 C   0  0  0  0  0  0  0  0  0  0  0  0
    2.8626   -2.0352    0.7478 C   0  0  0  0  0  0  0  0  0  0  0  0
    1.8711   -2.7237    1.4184 C   0  0  0  0  0  0  0  0  0  0  0  0
    1.8610   -4.0212    0.9116 C   0  0  0  0  0  0  0  0  0  0  0  0
    2.8540   -4.0808   -0.0582 C   0  0  0  0  0  0  0  0  0  0  0  0
    3.4375   -2.8661   -0.1384 O   0  0  0  0  0  0  0  0  0  0  0  0
    3.1888   -5.2071   -0.8254 C   0  0  0  0  0  0  0  0  0  0  0  0
    3.5365   -5.0585   -2.1641 C   0  0  0  0  0  0  0  0  0  0  0  0
    3.3864   -3.7659   -2.8617 C   0  0  0  0  0  0  0  0  0  0  0  0
    3.7416   -3.6934   -4.1550 N   0  0  0  0  0  0  0  0  0  0  0  0
    4.2120   -4.7286   -4.8042 C   0  0  0  0  0  0  0  0  0  0  0  0
    4.5444   -4.5695   -6.1004 O   0  5  0  0  0  0  0  0  0  0  0  0
    4.3842   -5.9555   -4.2431 N   0  0  0  0  0  0  0  0  0  0  0  0
    4.0765   -6.1811   -2.9480 C   0  0  0  0  0  0  0  0  0  0  0  0
    4.2360   -7.2788   -2.4462 O   0  0  0  0  0  0  0  0  0  0  0  0
    4.8961   -7.0031   -5.0218 C   0  0  0  0  0  0  0  0  0  0  0  0
    6.2663   -7.2176   -5.0840 C   0  0  0  0  0  0  0  0  0  0  0  0
    6.7686   -8.2500   -5.8516 C   0  0  0  0  0  0  0  0  0  0  0  0
    5.9064   -9.0707   -6.5593 C   0  0  0  0  0  0  0  0  0  0  0  0
    4.5394   -8.8581   -6.4988 C   0  0  0  0  0  0  0  0  0  0  0  0
    4.0329   -7.8308   -5.7270 C   0  0  0  0  0  0  0  0  0  0  0  0
    6.3996  -10.0799   -7.3100 F   0  0  0  0  0  0  0  0  0  0  0  0
    2.9500   -2.7878   -2.2778 O   0  0  0  0  0  0  0  0  0  0  0  0
    5.6295   -1.2860    1.1519 C   0  0  0  0  0  0  0  0  0  0  0  0
    6.7974   -0.9646    1.3227 O   0  0  0  0  0  0  0  0  0  0  0  0
    5.3382   -2.4607    0.9742 O   0  0  0  0  0  1  0  0  0  0  0  0
    1.8153    2.4422    1.1874 H   0  0  0  0  0  0  0  0  0  0  0  0
    4.1649    3.0787    1.5257 H   0  0  0  0  0  0  0  0  0  0  0  0
    5.9304    1.3712    1.5138 H   0  0  0  0  0  0  0  0  0  0  0  0
    1.2030    0.0916    0.8241 H   0  0  0  0  0  0  0  0  0  0  0  0
    1.2258   -2.3306    2.1901 H   0  0  0  0  0  0  0  0  0  0  0  0
    1.2075   -4.8259    1.2145 H   0  0  0  0  0  0  0  0  0  0  0  0
    3.1766   -6.1893   -0.3765 H   0  0  0  0  0  0  0  0  0  0  0  0
    6.9390   -6.5773   -4.5328 H   0  0  0  0  0  0  0  0  0  0  0  0
    7.8344   -8.4172   -5.9003 H   0  0  0  0  0  0  0  0  0  0  0  0
    3.8685   -9.4989   -7.0517 H   0  0  0  0  0  0  0  0  0  0  0  0
    2.9665   -7.6682   -5.6762 H   0  0  0  0  0  0  0  0  0  0  0  0
  1  6  2  0  0  0  0
  1  2  1  0  0  0  0
  1 32  1  0  0  0  0
  2  3  2  0  0  0  0
  2 33  1  0  0  0  0
  3  4  1  0  0  0  0
  3 34  1  0  0  0  0
  4  5  2  0  0  0  0
  4 29  1  0  0  0  0
  5  6  1  0  0  0  0
  5  7  1  0  0  0  0
  6 35  1  0  0  0  0
  7 11  1  0  0  0  0
  7  8  2  0  0  0  0
  8  9  1  0  0  0  0
  8 36  1  0  0  0  0
  9 10  2  0  0  0  0
  9 37  1  0  0  0  0
 10 11  1  0  0  0  0
 10 12  1  0  0  0  0
 12 13  2  0  0  0  0
 12 38  1  0  0  0  0
 13 19  1  0  0  0  0
 13 14  1  0  0  0  0
 14 15  1  0  0  0  0
 14 28  2  0  0  0  0
 15 16  2  0  0  0  0
 16 17  1  0  0  0  0
 16 18  1  0  0  0  0
 18 19  1  0  0  0  0
 18 21  1  0  0  0  0
 19 20  2  0  0  0  0
 21 26  2  0  0  0  0
 21 22  1  0  0  0  0
 22 23  2  0  0  0  0
 22 39  1  0  0  0  0
 23 24  1  0  0  0  0
 23 40  1  0  0  0  0
 24 25  2  0  0  0  0
 24 27  1  0  0  0  0
 25 26  1  0  0  0  0
 25 41  1  0  0  0  0
 26 42  1  0  0  0  0
 29 30  2  0  0  0  0
 29 31  1  0  0  0  0
M  CHG  1  17  -1
M  END
$$$$
ZINC33520914
 OpenBabel01252620473D

 35 36  0  0  1  0  0  0  0  0999 V2000
    0.3413   -3.0241   -0.0046 C   0  0  0  0  0  0  0  0  0  0  0  0
    1.5045   -2.0660   -0.0178 C   0  0  0  0  0  0  0  0  0  0  0  0
    2.8126   -2.5536   -0.0389 C   0  0  0  0  0  0  0  0  0  0  0  0
    3.8343   -1.5761   -0.0428 C   0  0  0  0  0  0  0  0  0  0  0  0
    5.1197   -1.9122   -0.0564 N   0  0  0  0  0  0  0  0  0  0  0  0
    5.4978   -3.1588   -0.0675 C   0  0  0  0  0  0  0  0  0  0  0  0
    4.6217   -4.1704   -0.0651 O   0  0  0  0  0  0  0  0  0  0  0  0
    3.2932   -3.9541   -0.0514 C   0  0  0  0  0  0  0  0  0  0  0  0
    2.5083   -4.8845   -0.0491 O   0  0  0  0  0  0  0  0  0  0  0  0
    6.9717   -3.4723   -0.0835 C   0  0  0  0  0  0  0  0  0  0  0  0
    2.9348   -0.0465   -0.0256 S   0  0  0  0  0  0  0  0  0  0  0  0
    1.2818   -0.7199   -0.0140 C   0  0  0  0  0  0  0  0  0  0  0  0
    0.0021   -0.0041    0.0020 C   0  0  0  0  0  0  0  0  0  0  0  0
   -1.0435   -0.6268    0.0087 O   0  0  0  0  0  0  0  0  0  0  0  0
   -0.0162    1.3436    0.0094 N   0  0  0  0  0  0  0  0  0  0  0  0
   -1.2947    2.0587    0.0194 C   0  0  1  0  0  0  0  0  0  0  0  0
   -2.0044    1.4607    0.6099 H   0  0  0  0  0  0  0  0  0  0  0  0
   -1.0987    3.4453    0.6356 C   0  0  0  0  0  0  0  0  0  0  0  0
   -0.7114    3.3008    2.0848 C   0  0  0  0  0  0  0  0  0  0  0  0
   -0.6029    2.1974    2.5764 O   0  0  0  0  0  0  0  0  0  0  0  0
   -0.4857    4.3977    2.8347 N   0  0  0  0  0  0  0  0  0  0  0  0
   -1.8003    2.2036   -1.3929 C   0  0  0  0  0  0  0  0  0  0  0  0
   -1.1585    1.7554   -2.3133 O   0  0  0  0  0  0  0  0  0  0  0  0
   -2.9636    2.8305   -1.6283 O   0  0  0  0  0  1  0  0  0  0  0  0
    0.7176   -4.0577   -0.0100 H   0  0  0  0  0  0  0  0  0  0  0  0
   -0.2821   -2.8562   -0.8952 H   0  0  0  0  0  0  0  0  0  0  0  0
   -0.2605   -2.8577    0.9010 H   0  0  0  0  0  0  0  0  0  0  0  0
    7.1145   -4.5630   -0.0914 H   0  0  0  0  0  0  0  0  0  0  0  0
    7.4468   -3.0468    0.8127 H   0  0  0  0  0  0  0  0  0  0  0  0
    7.4296   -3.0360   -0.9835 H   0  0  0  0  0  0  0  0  0  0  0  0
    0.9288    1.9065    0.0079 H   0  0  0  0  0  0  0  0  0  0  0  0
   -0.3026    3.9777    0.0946 H   0  0  0  0  0  0  0  0  0  0  0  0
   -2.0366    4.0153    0.5618 H   0  0  0  0  0  0  0  0  0  0  0  0
   -0.2030    4.2922    3.8925 H   0  0  0  0  0  0  0  0  0  0  0  0
   -0.5842    5.3985    2.3889 H   0  0  0  0  0  0  0  0  0  0  0  0
  1  2  1  0  0  0  0
  1 25  1  0  0  0  0
  1 26  1  0  0  0  0
  1 27  1  0  0  0  0
  2 12  2  0  0  0  0
  2  3  1  0  0  0  0
  3  8  1  0  0  0  0
  3  4  2  0  0  0  0
  4  5  1  0  0  0  0
  4 11  1  0  0  0  0
  5  6  2  0  0  0  0
  6  7  1  0  0  0  0
  6 10  1  0  0  0  0
  7  8  1  0  0  0  0
  8  9  2  0  0  0  0
 10 28  1  0  0  0  0
 10 29  1  0  0  0  0
 10 30  1  0  0  0  0
 11 12  1  0  0  0  0
 12 13  1  0  0  0  0
 13 14  2  0  0  0  0
 13 15  1  0  0  0  0
 15 16  1  0  0  0  0
 15 31  1  0  0  0  0
 16 17  1  1  0  0  0
 16 18  1  0  0  0  0
 16 22  1  0  0  0  0
 18 19  1  0  0  0  0
 18 32  1  0  0  0  0
 18 33  1  0  0  0  0
 19 20  2  0  0  0  0
 19 21  1  0  0  0  0
 21 34  1  0  0  0  0
 21 35  1  0  0  0  0
 22 23  2  0  0  0  0
 22 24  1  0  0  0  0
M  END
$$$$
ZINC41919699
 OpenBabel01252620473D

 34 36  0  0  1  0  0  0  0  0999 V2000
    2.9449   -0.9952   -1.9556 C   0  0  0  0  0  0  0  0  0  0  0  0
    1.7677   -1.4935   -1.1575 C   0  0  0  0  0  0  0  0  0  0  0  0
    0.5063   -1.0899   -1.3041 N   0  0  0  0  0  0  0  0  0  0  0  0
   -0.2632   -1.7216   -0.4553 C   0  0  0  0  0  0  0  0  0  0  0  0
    0.5063   -2.5570    0.2637 N   0  0  0  0  0  0  0  0  0  0  0  0
    1.8175   -2.3957   -0.2130 N   0  0  0  0  0  0  0  0  0  0  0  0
    0.0642   -3.4604    1.3290 C   0  0  2  0  0  0  0  0  0  0  0  0
   -0.4757   -2.6274    2.4780 C   0  0  0  0  0  0  0  0  0  0  0  0
    0.6392   -1.7090    2.9998 C   0  0  0  0  0  0  0  0  0  0  0  0
    1.8285   -2.7614    3.8835 S   0  0  0  0  0  0  0  0  0  0  0  0
    2.0464   -4.1322    2.7928 C   0  0  0  0  0  0  0  0  0  0  0  0
    1.2117   -4.3475    1.7115 C   0  0  0  0  0  0  0  0  0  0  0  0
    1.4359   -5.4593    0.9034 C   0  0  0  0  0  0  0  0  0  0  0  0
    2.4732   -6.3288    1.1630 C   0  0  0  0  0  0  0  0  0  0  0  0
    3.3117   -6.1052    2.2398 C   0  0  0  0  0  0  0  0  0  0  0  0
    3.0978   -5.0117    3.0511 C   0  0  0  0  0  0  0  0  0  0  0  0
   -1.0522   -4.3208    0.7959 C   0  0  0  0  0  0  0  0  0  0  0  0
   -1.3401   -4.2814   -0.3882 O   0  0  0  0  0  0  0  0  0  0  0  0
   -1.6676   -5.0564    1.5487 O   0  0  0  0  0  1  0  0  0  0  0  0
   -1.7525   -1.5435   -0.3089 C   0  0  0  0  0  0  0  0  0  0  0  0
    3.0688   -1.6134   -2.8448 H   0  0  0  0  0  0  0  0  0  0  0  0
    2.7706    0.0387   -2.2533 H   0  0  0  0  0  0  0  0  0  0  0  0
    3.8468   -1.0507   -1.3460 H   0  0  0  0  0  0  0  0  0  0  0  0
   -1.3122   -2.0226    2.1281 H   0  0  0  0  0  0  0  0  0  0  0  0
   -0.8105   -3.2858    3.2795 H   0  0  0  0  0  0  0  0  0  0  0  0
    1.1322   -1.2115    2.1646 H   0  0  0  0  0  0  0  0  0  0  0  0
    0.2215   -0.9676    3.6809 H   0  0  0  0  0  0  0  0  0  0  0  0
    0.7869   -5.6429    0.0599 H   0  0  0  0  0  0  0  0  0  0  0  0
    2.6313   -7.1857    0.5250 H   0  0  0  0  0  0  0  0  0  0  0  0
    4.1280   -6.7824    2.4436 H   0  0  0  0  0  0  0  0  0  0  0  0
    3.7499   -4.8342    3.8935 H   0  0  0  0  0  0  0  0  0  0  0  0
   -2.2681   -2.2223   -0.9882 H   0  0  0  0  0  0  0  0  0  0  0  0
   -2.0457   -1.7644    0.7174 H   0  0  0  0  0  0  0  0  0  0  0  0
   -2.0208   -0.5149   -0.5501 H   0  0  0  0  0  0  0  0  0  0  0  0
  1  2  1  0  0  0  0
  1 21  1  0  0  0  0
  1 22  1  0  0  0  0
  1 23  1  0  0  0  0
  2  6  2  0  0  0  0
  2  3  1  0  0  0  0
  3  4  2  0  0  0  0
  4  5  1  0  0  0  0
  4 20  1  0  0  0  0
  5  6  1  0  0  0  0
  5  7  1  0  0  0  0
  7 12  1  0  0  0  0
  7  8  1  0  0  0  0
  7 17  1  6  0  0  0
  8  9  1  0  0  0  0
  8 24  1  0  0  0  0
  8 25  1  0  0  0  0
  9 10  1  0  0  0  0
  9 26  1  0  0  0  0
  9 27  1  0  0  0  0
 10 11  1  0  0  0  0
 11 16  2  0  0  0  0
 11 12  1  0  0  0  0
 12 13  2  0  0  0  0
 13 14  1  0  0  0  0
 13 28  1  0  0  0  0
 14 15  2  0  0  0  0
 14 29  1  0  0  0  0
 15 16  1  0  0  0  0
 15 30  1  0  0  0  0
 16 31  1  0  0  0  0
 17 18  2  0  0  0  0
 17 19  1  0  0  0  0
 20 32  1  0  0  0  0
 20 33  1  0  0  0  0
 20 34  1  0  0  0  0
M  END
$$$$
ZINC31948376
 OpenBabel01252620473D

 38 39  0  0  0  0  0  0  0  0999 V2000
    2.8687    0.0005   -0.0243 C   0  0  0  0  0  0  0  0  0  0  0  0
    2.5792    1.4794   -0.0146 C   0  0  0  0  0  0  0  0  0  0  0  0
    3.5852    2.3686   -0.0199 C   0  0  0  0  0  0  0  0  0  0  0  0
    2.7461    3.9415   -0.0039 S   0  0  0  0  0  0  0  0  0  0  0  0
    1.0702    3.3589    0.0094 C   0  0  0  0  0  0  0  0  0  0  0  0
    1.2100    1.9593    0.0010 C   0  0  0  0  0  0  0  0  0  0  0  0
   -0.0145    1.2147    0.0087 C   0  0  0  0  0  0  0  0  0  0  0  0
    0.0021   -0.0041    0.0020 O   0  0  0  0  0  0  0  0  0  0  0  0
   -1.1831    1.8825    0.0178 N   0  0  0  0  0  0  0  0  0  0  0  0
   -1.2208    3.2398    0.0302 C   0  0  0  0  0  0  0  0  0  0  0  0
   -0.1225    3.9466    0.0235 N   0  0  0  0  0  0  0  0  0  0  0  0
   -2.4398    1.1296    0.0196 C   0  0  0  0  0  0  0  0  0  0  0  0
   -2.8705    0.8597    1.4627 C   0  0  0  0  0  0  0  0  0  0  0  0
   -4.1633    0.0853    1.4645 C   0  0  0  0  0  0  0  0  0  0  0  0
   -4.6884   -0.2207    0.4150 O   0  0  0  0  0  0  0  0  0  0  0  0
   -4.7359   -0.2674    2.6325 N   0  0  0  0  0  0  0  0  0  0  0  0
   -5.9927   -1.0203    2.6343 C   0  0  0  0  0  0  0  0  0  0  0  0
   -6.4234   -1.2902    4.0774 C   0  0  0  0  0  0  0  0  0  0  0  0
   -7.7162   -2.0647    4.0793 C   0  0  0  0  0  0  0  0  0  0  0  0
   -8.2393   -2.3695    3.0337 O   0  0  0  0  0  0  0  0  0  0  0  0
   -8.2865   -2.4159    5.2425 O   0  0  0  0  0  1  0  0  0  0  0  0
    5.0682    2.1011   -0.0361 C   0  0  0  0  0  0  0  0  0  0  0  0
    3.9569   -0.1600   -0.0357 H   0  0  0  0  0  0  0  0  0  0  0  0
    2.4215   -0.4548   -0.9203 H   0  0  0  0  0  0  0  0  0  0  0  0
    2.4390   -0.4631    0.8759 H   0  0  0  0  0  0  0  0  0  0  0  0
   -2.1759    3.7438    0.0417 H   0  0  0  0  0  0  0  0  0  0  0  0
   -3.2183    1.7144   -0.4921 H   0  0  0  0  0  0  0  0  0  0  0  0
   -2.2952    0.1735   -0.5048 H   0  0  0  0  0  0  0  0  0  0  0  0
   -2.0920    0.2748    1.9744 H   0  0  0  0  0  0  0  0  0  0  0  0
   -3.0150    1.8158    1.9872 H   0  0  0  0  0  0  0  0  0  0  0  0
   -4.2596    0.0100    3.5844 H   0  0  0  0  0  0  0  0  0  0  0  0
   -6.7712   -0.4354    2.1226 H   0  0  0  0  0  0  0  0  0  0  0  0
   -5.8482   -1.9764    2.1099 H   0  0  0  0  0  0  0  0  0  0  0  0
   -5.6448   -1.8750    4.5891 H   0  0  0  0  0  0  0  0  0  0  0  0
   -6.5680   -0.3341    4.6018 H   0  0  0  0  0  0  0  0  0  0  0  0
    5.6131    3.0566   -0.0365 H   0  0  0  0  0  0  0  0  0  0  0  0
    5.3280    1.5305   -0.9399 H   0  0  0  0  0  0  0  0  0  0  0  0
    5.3459    1.5209    0.8563 H   0  0  0  0  0  0  0  0  0  0  0  0
  1  2  1  0  0  0  0
  1 23  1  0  0  0  0
  1 24  1  0  0  0  0
  1 25  1  0  0  0  0
  2  6  1  0  0  0  0
  2  3  2  0  0  0  0
  3  4  1  0  0  0  0
  3 22  1  0  0  0  0
  4  5  1  0  0  0  0
  5 11  1  0  0  0  0
  5  6  2  0  0  0  0
  6  7  1  0  0  0  0
  7  8  2  0  0  0  0
  7  9  1  0  0  0  0
  9 10  1  0  0  0  0
  9 12  1  0  0  0  0
 10 11  2  0  0  0  0
 10 26  1  0  0  0  0
 12 13  1  0  0  0  0
 12 27  1  0  0  0  0
 12 28  1  0  0  0  0
 13 14  1  0  0  0  0
 13 29  1  0  0  0  0
 13 30  1  0  0  0  0
 14 15  2  0  0  0  0
 14 16  1  0  0  0  0
 16 17  1  0  0  0  0
 16 31  1  0  0  0  0
 17 18  1  0  0  0  0
 17 32  1  0  0  0  0
 17 33  1  0  0  0  0
 18 19  1  0  0  0  0
 18 34  1  0  0  0  0
 18 35  1  0  0  0  0
 19 20  2  0  0  0  0
 19 21  1  0  0  0  0
 22 36  1  0  0  0  0
 22 37  1  0  0  0  0
 22 38  1  0  0  0  0
M  END
$$$$
ZINC40110915
 OpenBabel01252620473D

 63 65  0  0  1  0  0  0  0  0999 V2000
    0.5377    1.6420    0.0853 C   0  0  0  0  0  0  0  0  0  0  0  0
    0.3767    0.1206    0.0684 C   0  0  0  0  0  0  0  0  0  0  0  0
    1.0008   -0.4441   -1.2092 C   0  0  0  0  0  0  0  0  0  0  0  0
    0.8398   -1.9655   -1.2262 C   0  0  0  0  0  0  0  0  0  0  0  0
    1.4375   -2.5063   -2.4495 N   0  0  0  0  0  0  0  0  0  0  0  0
    0.7513   -2.7033   -3.7318 C   0  0  1  0  0  0  0  0  0  0  0  0
    0.3870   -1.7491   -4.1124 H   0  0  0  0  0  0  0  0  0  0  0  0
    1.7800   -3.2805   -4.6759 C   0  0  0  0  0  0  0  0  0  0  0  0
    2.9333   -3.3923   -3.9760 C   0  0  0  0  0  0  0  0  0  0  0  0
    2.7140   -2.9047   -2.5978 C   0  0  0  0  0  0  0  0  0  0  0  0
    3.5606   -2.8710   -1.7271 O   0  0  0  0  0  0  0  0  0  0  0  0
    4.1021   -3.8695   -4.4620 O   0  5  0  0  0  0  0  0  0  0  0  0
    1.5698   -3.6484   -6.0792 C   0  0  0  0  0  0  0  0  0  0  0  0
    1.4980   -2.7826   -6.9309 O   0  0  0  0  0  0  0  0  0  0  0  0
    1.4449   -5.0718   -6.4595 C   0  0  0  0  0  0  0  0  0  0  0  0
    1.4236   -6.0617   -5.4747 C   0  0  0  0  0  0  0  0  0  0  0  0
    1.3064   -7.3875   -5.8365 C   0  0  0  0  0  0  0  0  0  0  0  0
    1.2105   -7.7378   -7.1719 C   0  0  0  0  0  0  0  0  0  0  0  0
    1.2314   -6.7619   -8.1530 C   0  0  0  0  0  0  0  0  0  0  0  0
    1.3419   -5.4319   -7.8049 C   0  0  0  0  0  0  0  0  0  0  0  0
    1.0617   -9.4339   -7.6252 S   0  0  0  0  0  0  0  0  0  0  0  0
    1.4249   -9.5213   -8.9962 O   0  0  0  0  0  0  0  0  0  0  0  0
    1.7199  -10.1839   -6.6135 O   0  0  0  0  0  0  0  0  0  0  0  0
   -0.5448   -9.8257   -7.5353 N   0  0  0  0  0  0  0  0  0  0  0  0
   -1.4057   -9.6614   -8.7092 C   0  0  0  0  0  0  0  0  0  0  0  0
   -1.1051  -10.3364   -6.2817 C   0  0  0  0  0  0  0  0  0  0  0  0
   -0.3963   -3.6654   -3.5629 C   0  0  0  0  0  0  0  0  0  0  0  0
   -0.3666   -4.6063   -2.5515 C   0  0  0  0  0  0  0  0  0  0  0  0
   -1.4188   -5.4894   -2.3964 C   0  0  0  0  0  0  0  0  0  0  0  0
   -2.5036   -5.4333   -3.2521 C   0  0  0  0  0  0  0  0  0  0  0  0
   -2.5383   -4.4942   -4.2644 C   0  0  0  0  0  0  0  0  0  0  0  0
   -1.4859   -3.6033   -4.4190 C   0  0  0  0  0  0  0  0  0  0  0  0
   -1.5202   -2.6747   -5.4107 O   0  0  0  0  0  0  0  0  0  0  0  0
   -2.7164   -2.6007   -6.1890 C   0  0  0  0  0  0  0  0  0  0  0  0
   -2.5361   -1.5689   -7.3043 C   0  0  0  0  0  0  0  0  0  0  0  0
    1.5974    1.8956    0.0558 H   0  0  0  0  0  0  0  0  0  0  0  0
    0.0374    2.0700   -0.7834 H   0  0  0  0  0  0  0  0  0  0  0  0
    0.0930    2.0444    0.9955 H   0  0  0  0  0  0  0  0  0  0  0  0
    0.8769   -0.3074    0.9371 H   0  0  0  0  0  0  0  0  0  0  0  0
   -0.6830   -0.1329    0.0978 H   0  0  0  0  0  0  0  0  0  0  0  0
    0.5006   -0.0161   -2.0779 H   0  0  0  0  0  0  0  0  0  0  0  0
    2.0605   -0.1906   -1.2387 H   0  0  0  0  0  0  0  0  0  0  0  0
    1.3401   -2.3935   -0.3575 H   0  0  0  0  0  0  0  0  0  0  0  0
   -0.2199   -2.2191   -1.1967 H   0  0  0  0  0  0  0  0  0  0  0  0
    1.4991   -5.7898   -4.4322 H   0  0  0  0  0  0  0  0  0  0  0  0
    1.2898   -8.1541   -5.0759 H   0  0  0  0  0  0  0  0  0  0  0  0
    1.1565   -7.0421   -9.1933 H   0  0  0  0  0  0  0  0  0  0  0  0
    1.3536   -4.6710   -8.5713 H   0  0  0  0  0  0  0  0  0  0  0  0
   -1.0294  -10.2787   -9.5249 H   0  0  0  0  0  0  0  0  0  0  0  0
   -2.4217   -9.9679   -8.4605 H   0  0  0  0  0  0  0  0  0  0  0  0
   -1.4064   -8.6154   -9.0157 H   0  0  0  0  0  0  0  0  0  0  0  0
   -1.4618   -9.5028   -5.6768 H   0  0  0  0  0  0  0  0  0  0  0  0
   -1.9357  -11.0072   -6.5017 H   0  0  0  0  0  0  0  0  0  0  0  0
   -0.3349  -10.8794   -5.7340 H   0  0  0  0  0  0  0  0  0  0  0  0
    0.4795   -4.6521   -1.8819 H   0  0  0  0  0  0  0  0  0  0  0  0
   -1.3934   -6.2246   -1.6057 H   0  0  0  0  0  0  0  0  0  0  0  0
   -3.3242   -6.1245   -3.1291 H   0  0  0  0  0  0  0  0  0  0  0  0
   -3.3858   -4.4508   -4.9325 H   0  0  0  0  0  0  0  0  0  0  0  0
   -2.9257   -3.5766   -6.6272 H   0  0  0  0  0  0  0  0  0  0  0  0
   -3.5479   -2.3035   -5.5500 H   0  0  0  0  0  0  0  0  0  0  0  0
   -2.2404   -0.6135   -6.8710 H   0  0  0  0  0  0  0  0  0  0  0  0
   -1.7636   -1.9100   -7.9935 H   0  0  0  0  0  0  0  0  0  0  0  0
   -3.4760   -1.4482   -7.8430 H   0  0  0  0  0  0  0  0  0  0  0  0
  1  2  1  0  0  0  0
  1 36  1  0  0  0  0
  1 37  1  0  0  0  0
  1 38  1  0  0  0  0
  2  3  1  0  0  0  0
  2 39  1  0  0  0  0
  2 40  1  0  0  0  0
  3  4  1  0  0  0  0
  3 41  1  0  0  0  0
  3 42  1  0  0  0  0
  4  5  1  0  0  0  0
  4 43  1  0  0  0  0
  4 44  1  0  0  0  0
  5 10  1  0  0  0  0
  5  6  1  0  0  0  0
  6  7  1  6  0  0  0
  6  8  1  0  0  0  0
  6 27  1  0  0  0  0
  8  9  2  0  0  0  0
  8 13  1  0  0  0  0
  9 10  1  0  0  0  0
  9 12  1  0  0  0  0
 10 11  2  0  0  0  0
 13 14  2  0  0  0  0
 13 15  1  0  0  0  0
 15 20  2  0  0  0  0
 15 16  1  0  0  0  0
 16 17  2  0  0  0  0
 16 45  1  0  0  0  0
 17 18  1  0  0  0  0
 17 46  1  0  0  0  0
 18 19  2  0  0  0  0
 18 21  1  0  0  0  0
 19 20  1  0  0  0  0
 19 47  1  0  0  0  0
 20 48  1  0  0  0  0
 21 22  2  0  0  0  0
 21 23  2  0  0  0  0
 21 24  1  0  0  0  0
 24 25  1  0  0  0  0
 24 26  1  0  0  0  0
 25 49  1  0  0  0  0
 25 50  1  0  0  0  0
 25 51  1  0  0  0  0
 26 52  1  0  0  0  0
 26 53  1  0  0  0  0
 26 54  1  0  0  0  0
 27 32  2  0  0  0  0
 27 28  1  0  0  0  0
 28 29  2  0  0  0  0
 28 55  1  0  0  0  0
 29 30  1  0  0  0  0
 29 56  1  0  0  0  0
 30 31  2  0  0  0  0
 30 57  1  0  0  0  0
 31 32  1  0  0  0  0
 31 58  1  0  0  0  0
 32 33  1  0  0  0  0
 33 34  1  0  0  0  0
 34 35  1  0  0  0  0
 34 59  1  0  0  0  0
 34 60  1  0  0  0  0
 35 61  1  0  0  0  0
 35 62  1  0  0  0  0
 35 63  1  0  0  0  0
M  CHG  1  12  -1
M  END
$$$$
ZINC13254383
 OpenBabel01252620473D

 50 53  0  0  0  0  0  0  0  0999 V2000
    1.1362    3.0717    0.0486 C   0  0  0  0  0  0  0  0  0  0  0  0
    1.1363    1.6895    0.0348 C   0  0  0  0  0  0  0  0  0  0  0  0
   -0.0608    0.9982    0.0318 C   0  0  0  0  0  0  0  0  0  0  0  0
   -1.2580    1.6892    0.0373 C   0  0  0  0  0  0  0  0  0  0  0  0
   -1.2581    3.0714    0.0564 C   0  0  0  0  0  0  0  0  0  0  0  0
   -0.0611    3.7627    0.0594 C   0  0  0  0  0  0  0  0  0  0  0  0
   -2.5630    0.9356    0.0278 C   0  0  0  0  0  0  0  0  0  0  0  0
   -2.9878    0.6773    1.4058 N   0  0  0  0  0  0  0  0  0  0  0  0
   -2.6849   -0.4225    2.1782 C   0  0  0  0  0  0  0  0  0  0  0  0
   -3.2650   -0.2445    3.3450 N   0  0  0  0  0  0  0  0  0  0  0  0
   -3.9065    0.8690    3.3503 N   0  0  0  0  0  0  0  0  0  0  0  0
   -3.7723    1.4743    2.1917 C   0  0  0  0  0  0  0  0  0  0  0  0
   -4.4733    3.0252    1.7359 S   0  0  0  0  0  0  0  0  0  0  0  0
   -5.3466    3.4374    3.2668 C   0  0  0  0  0  0  0  0  0  0  0  0
   -6.0421    4.7647    3.1066 C   0  0  0  0  0  0  0  0  0  0  0  0
   -5.9558    5.3721    2.0605 O   0  0  0  0  0  0  0  0  0  0  0  0
   -6.7600    5.2767    4.1259 N   0  0  0  0  0  0  0  0  0  0  0  0
   -7.3261    6.5443    4.0114 C   0  0  0  0  0  0  0  0  0  0  0  0
   -7.8120    6.9813    2.7874 C   0  0  0  0  0  0  0  0  0  0  0  0
   -8.3818    8.2477    2.6782 C   0  0  0  0  0  0  0  0  0  0  0  0
   -8.4554    9.0822    3.7970 C   0  0  0  0  0  0  0  0  0  0  0  0
   -7.9700    8.6553    5.0121 C   0  0  0  0  0  0  0  0  0  0  0  0
   -7.4013    7.3847    5.1317 C   0  0  0  0  0  0  0  0  0  0  0  0
   -6.8809    6.9275    6.4351 C   0  0  0  0  0  0  0  0  0  0  0  0
   -6.2992    5.8642    6.5177 O   0  0  0  0  0  0  0  0  0  0  0  0
   -8.9053    8.7121    1.3746 C   0  0  0  0  0  0  0  0  0  0  0  0
   -8.8418    7.9878    0.4019 O   0  0  0  0  0  0  0  0  0  0  0  0
   -1.8652   -1.5758    1.7754 C   0  0  0  0  0  0  0  0  0  0  0  0
   -1.3290   -2.5078    2.6125 C   0  0  0  0  0  0  0  0  0  0  0  0
   -0.6279   -3.4232    1.8039 C   0  0  0  0  0  0  0  0  0  0  0  0
   -0.7610   -3.0075    0.5286 C   0  0  0  0  0  0  0  0  0  0  0  0
   -1.5088   -1.8916    0.5146 O   0  0  0  0  0  0  0  0  0  0  0  0
    2.0714    3.6118    0.0506 H   0  0  0  0  0  0  0  0  0  0  0  0
    2.0716    1.1496    0.0261 H   0  0  0  0  0  0  0  0  0  0  0  0
   -0.0607   -0.0818    0.0207 H   0  0  0  0  0  0  0  0  0  0  0  0
   -2.1935    3.6113    0.0645 H   0  0  0  0  0  0  0  0  0  0  0  0
   -0.0612    4.8427    0.0698 H   0  0  0  0  0  0  0  0  0  0  0  0
   -3.3220    1.5299   -0.4810 H   0  0  0  0  0  0  0  0  0  0  0  0
   -2.4319   -0.0115   -0.4956 H   0  0  0  0  0  0  0  0  0  0  0  0
   -6.0841    2.6646    3.4837 H   0  0  0  0  0  0  0  0  0  0  0  0
   -4.6320    3.4984    4.0876 H   0  0  0  0  0  0  0  0  0  0  0  0
   -6.8825    4.7625    4.9392 H   0  0  0  0  0  0  0  0  0  0  0  0
   -7.7520    6.3389    1.9213 H   0  0  0  0  0  0  0  0  0  0  0  0
   -8.8941   10.0650    3.7077 H   0  0  0  0  0  0  0  0  0  0  0  0
   -8.0285    9.3034    5.8740 H   0  0  0  0  0  0  0  0  0  0  0  0
   -1.4250   -2.5396    3.6877 H   0  0  0  0  0  0  0  0  0  0  0  0
   -0.0831   -4.2922    2.1421 H   0  0  0  0  0  0  0  0  0  0  0  0
   -0.3369   -3.4918   -0.3386 H   0  0  0  0  0  0  0  0  0  0  0  0
   -7.0511    7.6894    7.5332 O   0  0  0  0  0  1  0  0  0  0  0  0
   -9.4522    9.9382    1.2667 O   0  0  0  0  0  1  0  0  0  0  0  0
  1  6  2  0  0  0  0
  1  2  1  0  0  0  0
  1 33  1  0  0  0  0
  2  3  2  0  0  0  0
  2 34  1  0  0  0  0
  3  4  1  0  0  0  0
  3 35  1  0  0  0  0
  4  5  2  0  0  0  0
  4  7  1  0  0  0  0
  5  6  1  0  0  0  0
  5 36  1  0  0  0  0
  6 37  1  0  0  0  0
  7  8  1  0  0  0  0
  7 38  1  0  0  0  0
  7 39  1  0  0  0  0
  8 12  1  0  0  0  0
  8  9  1  0  0  0  0
  9 10  2  0  0  0  0
  9 28  1  0  0  0  0
 10 11  1  0  0  0  0
 11 12  2  0  0  0  0
 12 13  1  0  0  0  0
 13 14  1  0  0  0  0
 14 15  1  0  0  0  0
 14 40  1  0  0  0  0
 14 41  1  0  0  0  0
 15 16  2  0  0  0  0
 15 17  1  0  0  0  0
 17 18  1  0  0  0  0
 17 42  1  0  0  0  0
 18 23  2  0  0  0  0
 18 19  1  0  0  0  0
 19 20  2  0  0  0  0
 19 43  1  0  0  0  0
 20 21  1  0  0  0  0
 20 26  1  0  0  0  0
 21 22  2  0  0  0  0
 21 44  1  0  0  0  0
 22 23  1  0  0  0  0
 22 45  1  0  0  0  0
 23 24  1  0  0  0  0
 24 25  2  0  0  0  0
 24 49  1  0  0  0  0
 26 27  2  0  0  0  0
 26 50  1  0  0  0  0
 28 32  1  0  0  0  0
 28 29  2  0  0  0  0
 29 30  1  0  0  0  0
 29 46  1  0  0  0  0
 30 31  2  0  0  0  0
 30 47  1  0  0  0  0
 31 32  1  0  0  0  0
 31 48  1  0  0  0  0
M  END
$$$$
ZINC60436913
 OpenBabel01252620473D

 38 39  0  0  0  0  0  0  0  0999 V2000
   -0.0187    1.5258    0.0104 C   0  0  0  0  0  0  0  0  0  0  0  0
    0.0021   -0.0041    0.0020 C   0  0  0  0  0  0  0  0  0  0  0  0
   -1.3386   -0.4987    0.0122 O   0  0  0  0  0  0  0  0  0  0  0  0
   -1.4985   -1.8494    0.0064 C   0  0  0  0  0  0  0  0  0  0  0  0
   -0.3899   -2.6796   -0.0029 C   0  0  0  0  0  0  0  0  0  0  0  0
   -0.5539   -4.0527   -0.0092 C   0  0  0  0  0  0  0  0  0  0  0  0
   -1.8231   -4.6010   -0.0058 C   0  0  0  0  0  0  0  0  0  0  0  0
   -2.9346   -3.7794    0.0040 C   0  0  0  0  0  0  0  0  0  0  0  0
   -2.7777   -2.4011    0.0157 C   0  0  0  0  0  0  0  0  0  0  0  0
   -3.9015   -1.5670    0.0314 N   0  0  0  0  0  2  0  0  0  0  0  0
   -5.4211   -2.2252    0.0424 S   0  0  0  0  0  0  0  0  0  0  0  0
   -5.5869   -2.8849   -1.2052 O   0  0  0  0  0  0  0  0  0  0  0  0
   -5.5627   -2.8993    1.2853 O   0  0  0  0  0  0  0  0  0  0  0  0
   -6.5680   -0.8878    0.0613 C   0  0  0  0  0  0  0  0  0  0  0  0
   -7.4165   -0.6895   -1.0117 C   0  0  0  0  0  0  0  0  0  0  0  0
   -8.3164    0.3596   -0.9972 C   0  0  0  0  0  0  0  0  0  0  0  0
   -8.3689    1.2118    0.0904 C   0  0  0  0  0  0  0  0  0  0  0  0
   -7.5220    1.0152    1.1644 C   0  0  0  0  0  0  0  0  0  0  0  0
   -6.6237   -0.0386    1.1532 C   0  0  0  0  0  0  0  0  0  0  0  0
   -5.7984   -0.2346    2.2047 F   0  0  0  0  0  0  0  0  0  0  0  0
   -9.5159    2.5492    0.1066 S   0  0  0  0  0  0  0  0  0  0  0  0
   -8.9910    3.5236    0.9979 O   0  0  0  0  0  0  0  0  0  0  0  0
   -9.8173    2.8423   -1.2508 O   0  0  0  0  0  0  0  0  0  0  0  0
  -10.9147    1.9863    0.7912 N   0  0  0  0  0  0  0  0  0  0  0  0
    1.0039    1.9031    0.0027 H   0  0  0  0  0  0  0  0  0  0  0  0
   -0.5459    1.8868   -0.8726 H   0  0  0  0  0  0  0  0  0  0  0  0
   -0.5289    1.8773    0.9072 H   0  0  0  0  0  0  0  0  0  0  0  0
    0.5123   -0.3556   -0.8948 H   0  0  0  0  0  0  0  0  0  0  0  0
    0.5293   -0.3651    0.8851 H   0  0  0  0  0  0  0  0  0  0  0  0
    0.6029   -2.2545   -0.0056 H   0  0  0  0  0  0  0  0  0  0  0  0
    0.3117   -4.6984   -0.0172 H   0  0  0  0  0  0  0  0  0  0  0  0
   -1.9463   -5.6740   -0.0111 H   0  0  0  0  0  0  0  0  0  0  0  0
   -3.9248   -4.2104    0.0062 H   0  0  0  0  0  0  0  0  0  0  0  0
   -7.3761   -1.3542   -1.8619 H   0  0  0  0  0  0  0  0  0  0  0  0
   -8.9787    0.5140   -1.8361 H   0  0  0  0  0  0  0  0  0  0  0  0
   -7.5630    1.6811    2.0136 H   0  0  0  0  0  0  0  0  0  0  0  0
  -11.4906    2.5910    1.2848 H   0  0  0  0  0  0  0  0  0  0  0  0
  -11.1583    1.0520    0.6986 H   0  0  0  0  0  0  0  0  0  0  0  0
  1  2  1  0  0  0  0
  1 25  1  0  0  0  0
  1 26  1  0  0  0  0
  1 27  1  0  0  0  0
  2  3  1  0  0  0  0
  2 28  1  0  0  0  0
  2 29  1  0  0  0  0
  3  4  1  0  0  0  0
  4  9  2  0  0  0  0
  4  5  1  0  0  0  0
  5  6  2  0  0  0  0
  5 30  1  0  0  0  0
  6  7  1  0  0  0  0
  6 31  1  0  0  0  0
  7  8  2  0  0  0  0
  7 32  1  0  0  0  0
  8  9  1  0  0  0  0
  8 33  1  0  0  0  0
  9 10  1  0  0  0  0
 10 11  1  0  0  0  0
 11 12  2  0  0  0  0
 11 13  2  0  0  0  0
 11 14  1  0  0  0  0
 14 19  2  0  0  0  0
 14 15  1  0  0  0  0
 15 16  2  0  0  0  0
 15 34  1  0  0  0  0
 16 17  1  0  0  0  0
 16 35  1  0  0  0  0
 17 18  2  0  0  0  0
 17 21  1  0  0  0  0
 18 19  1  0  0  0  0
 18 36  1  0  0  0  0
 19 20  1  0  0  0  0
 21 22  2  0  0  0  0
 21 23  2  0  0  0  0
 21 24  1  0  0  0  0
 24 37  1  0  0  0  0
 24 38  1  0  0  0  0
M  END
$$$$
ZINC40082439
 OpenBabel01252620473D

 60 62  0  0  1  0  0  0  0  0999 V2000
    1.3840   -1.1865    2.3303 C   0  0  0  0  0  0  0  0  0  0  0  0
    0.5924   -1.2928    1.0253 C   0  0  0  0  0  0  0  0  0  0  0  0
    1.4562   -1.9684   -0.0416 C   0  0  0  0  0  0  0  0  0  0  0  0
    0.7168   -2.0677   -1.2605 O   0  0  0  0  0  0  0  0  0  0  0  0
    1.3433   -2.6470   -2.3156 C   0  0  0  0  0  0  0  0  0  0  0  0
    2.6450   -3.1165   -2.1767 C   0  0  0  0  0  0  0  0  0  0  0  0
    3.2839   -3.7052   -3.2442 C   0  0  0  0  0  0  0  0  0  0  0  0
    2.6223   -3.8309   -4.4698 C   0  0  0  0  0  0  0  0  0  0  0  0
    1.3137   -3.3576   -4.6052 C   0  0  0  0  0  0  0  0  0  0  0  0
    0.6800   -2.7748   -3.5307 C   0  0  0  0  0  0  0  0  0  0  0  0
    0.5960   -3.4899   -5.9237 C   0  0  0  0  0  0  0  0  0  0  0  0
    3.3037   -4.4611   -5.6176 C   0  0  0  0  0  0  0  0  0  0  0  0
    3.4469   -5.6692   -5.6518 O   0  0  0  0  0  0  0  0  0  0  0  0
    3.8083   -3.6316   -6.7165 C   0  0  0  0  0  0  0  0  0  0  0  0
    4.3571   -4.0706   -7.8729 C   0  0  0  0  0  0  0  0  0  0  0  0
    4.7317   -2.9079   -8.7048 C   0  0  0  0  0  0  0  0  0  0  0  0
    5.2480   -2.9734   -9.8027 O   0  0  0  0  0  0  0  0  0  0  0  0
    4.4167   -1.7661   -8.0666 N   0  0  0  0  0  0  0  0  0  0  0  0
    3.8096   -2.1220   -6.7787 C   0  0  2  0  0  0  0  0  0  0  0  0
    2.7887   -1.7438   -6.7256 H   0  0  0  0  0  0  0  0  0  0  0  0
    4.6314   -1.5575   -5.6486 C   0  0  0  0  0  0  0  0  0  0  0  0
    6.0103   -1.6584   -5.6797 C   0  0  0  0  0  0  0  0  0  0  0  0
    6.7670   -1.1416   -4.6446 C   0  0  0  0  0  0  0  0  0  0  0  0
    6.1470   -0.5233   -3.5758 C   0  0  0  0  0  0  0  0  0  0  0  0
    4.7641   -0.4209   -3.5423 C   0  0  0  0  0  0  0  0  0  0  0  0
    4.0072   -0.9349   -4.5854 C   0  0  0  0  0  0  0  0  0  0  0  0
    4.1519    0.1869   -2.4922 O   0  0  0  0  0  0  0  0  0  0  0  0
    4.9944    0.6979   -1.4572 C   0  0  0  0  0  0  0  0  0  0  0  0
    4.1324    1.3415   -0.3692 C   0  0  0  0  0  0  0  0  0  0  0  0
    4.6349   -0.4081   -8.5710 C   0  0  0  0  0  0  0  0  0  0  0  0
    3.4049    0.0471   -9.3589 C   0  0  0  0  0  0  0  0  0  0  0  0
    2.2846    0.1467   -8.4775 O   0  0  0  0  0  0  0  0  0  0  0  0
    4.5346   -5.3680   -8.2135 O   0  5  0  0  0  0  0  0  0  0  0  0
    1.6639   -2.1845    2.6677 H   0  0  0  0  0  0  0  0  0  0  0  0
    2.2834   -0.5942    2.1624 H   0  0  0  0  0  0  0  0  0  0  0  0
    0.7686   -0.7052    3.0903 H   0  0  0  0  0  0  0  0  0  0  0  0
   -0.3071   -1.8852    1.1932 H   0  0  0  0  0  0  0  0  0  0  0  0
    0.3125   -0.2949    0.6878 H   0  0  0  0  0  0  0  0  0  0  0  0
    2.3556   -1.3760   -0.2095 H   0  0  0  0  0  0  0  0  0  0  0  0
    1.7361   -2.9663    0.2958 H   0  0  0  0  0  0  0  0  0  0  0  0
    3.1554   -3.0187   -1.2299 H   0  0  0  0  0  0  0  0  0  0  0  0
    4.2949   -4.0692   -3.1357 H   0  0  0  0  0  0  0  0  0  0  0  0
   -0.3322   -2.4126   -3.6332 H   0  0  0  0  0  0  0  0  0  0  0  0
   -0.0078   -4.3974   -5.9191 H   0  0  0  0  0  0  0  0  0  0  0  0
   -0.0495   -2.6247   -6.0744 H   0  0  0  0  0  0  0  0  0  0  0  0
    1.3263   -3.5435   -6.7311 H   0  0  0  0  0  0  0  0  0  0  0  0
    6.4968   -2.1419   -6.5139 H   0  0  0  0  0  0  0  0  0  0  0  0
    7.8437   -1.2216   -4.6712 H   0  0  0  0  0  0  0  0  0  0  0  0
    6.7386   -0.1204   -2.7671 H   0  0  0  0  0  0  0  0  0  0  0  0
    2.9306   -0.8522   -4.5638 H   0  0  0  0  0  0  0  0  0  0  0  0
    5.5752   -0.1173   -1.0258 H   0  0  0  0  0  0  0  0  0  0  0  0
    5.6702    1.4445   -1.8743 H   0  0  0  0  0  0  0  0  0  0  0  0
    4.7750    1.7313    0.4203 H   0  0  0  0  0  0  0  0  0  0  0  0
    3.5516    2.1567   -0.8006 H   0  0  0  0  0  0  0  0  0  0  0  0
    3.4566    0.5949    0.0479 H   0  0  0  0  0  0  0  0  0  0  0  0
    4.8003    0.2686   -7.7326 H   0  0  0  0  0  0  0  0  0  0  0  0
    5.5082   -0.3987   -9.2232 H   0  0  0  0  0  0  0  0  0  0  0  0
    3.6012    1.0205   -9.8085 H   0  0  0  0  0  0  0  0  0  0  0  0
    3.1870   -0.6779  -10.1431 H   0  0  0  0  0  0  0  0  0  0  0  0
    1.4679    0.4312   -8.9101 H   0  0  0  0  0  0  0  0  0  0  0  0
  1  2  1  0  0  0  0
  1 34  1  0  0  0  0
  1 35  1  0  0  0  0
  1 36  1  0  0  0  0
  2  3  1  0  0  0  0
  2 37  1  0  0  0  0
  2 38  1  0  0  0  0
  3  4  1  0  0  0  0
  3 39  1  0  0  0  0
  3 40  1  0  0  0  0
  4  5  1  0  0  0  0
  5 10  2  0  0  0  0
  5  6  1  0  0  0  0
  6  7  2  0  0  0  0
  6 41  1  0  0  0  0
  7  8  1  0  0  0  0
  7 42  1  0  0  0  0
  8  9  2  0  0  0  0
  8 12  1  0  0  0  0
  9 10  1  0  0  0  0
  9 11  1  0  0  0  0
 10 43  1  0  0  0  0
 11 44  1  0  0  0  0
 11 45  1  0  0  0  0
 11 46  1  0  0  0  0
 12 13  2  0  0  0  0
 12 14  1  0  0  0  0
 14 19  1  0  0  0  0
 14 15  2  0  0  0  0
 15 16  1  0  0  0  0
 15 33  1  0  0  0  0
 16 17  2  0  0  0  0
 16 18  1  0  0  0  0
 18 19  1  0  0  0  0
 18 30  1  0  0  0  0
 19 20  1  1  0  0  0
 19 21  1  0  0  0  0
 21 26  2  0  0  0  0
 21 22  1  0  0  0  0
 22 23  2  0  0  0  0
 22 47  1  0  0  0  0
 23 24  1  0  0  0  0
 23 48  1  0  0  0  0
 24 25  2  0  0  0  0
 24 49  1  0  0  0  0
 25 26  1  0  0  0  0
 25 27  1  0  0  0  0
 26 50  1  0  0  0  0
 27 28  1  0  0  0  0
 28 29  1  0  0  0  0
 28 51  1  0  0  0  0
 28 52  1  0  0  0  0
 29 53  1  0  0  0  0
 29 54  1  0  0  0  0
 29 55  1  0  0  0  0
 30 31  1  0  0  0  0
 30 56  1  0  0  0  0
 30 57  1  0  0  0  0
 31 32  1  0  0  0  0
 31 58  1  0  0  0  0
 31 59  1  0  0  0  0
 32 60  1  0  0  0  0
M  CHG  1  33  -1
M  END
$$$$
ZINC45290302
 OpenBabel01252620473D

 60 63  0  0  1  0  0  0  0  0999 V2000
   -0.5760    0.4371   -0.1100 C   0  0  0  0  0  0  0  0  0  0  0  0
   -0.4580   -0.9839   -0.2053 O   0  0  0  0  0  0  0  0  0  0  0  0
    0.2282   -1.4753   -1.2683 C   0  0  0  0  0  0  0  0  0  0  0  0
    0.3759   -2.8505   -1.4248 C   0  0  0  0  0  0  0  0  0  0  0  0
    1.0689   -3.3600   -2.4966 C   0  0  0  0  0  0  0  0  0  0  0  0
    1.6315   -2.4682   -3.4419 C   0  0  0  0  0  0  0  0  0  0  0  0
    1.4235   -1.0928   -3.1905 C   0  0  0  0  0  0  0  0  0  0  0  0
    0.7518   -0.6461   -2.1583 N   0  0  0  0  0  0  0  0  0  0  0  0
    2.2601   -0.3330   -4.5636 S   0  0  0  0  0  0  0  0  0  0  0  0
    2.8118   -1.8379   -5.3536 C   0  0  0  0  0  0  0  0  0  0  0  0
    2.3407   -2.7638   -4.5527 N   0  0  0  0  0  0  0  0  0  0  0  0
    3.5498   -1.9885   -6.5170 N   0  0  0  0  0  0  0  0  0  0  0  0
    3.9468   -0.9020   -7.2086 C   0  0  0  0  0  0  0  0  0  0  0  0
    3.5819    0.2022   -6.8650 O   0  0  0  0  0  0  0  0  0  0  0  0
    4.8443   -1.0594   -8.4090 C   0  0  2  0  0  0  0  0  0  0  0  0
    4.3283   -1.6384   -9.1750 H   0  0  0  0  0  0  0  0  0  0  0  0
    6.1253   -1.7870   -7.9961 C   0  0  0  0  0  0  0  0  0  0  0  0
    6.9662   -2.0842   -9.2393 C   0  0  0  0  0  0  0  0  0  0  0  0
    6.2527   -3.1283  -10.1228 C   0  0  0  0  0  0  0  0  0  0  0  0
    7.4025   -4.0033  -10.6806 C   0  0  0  0  0  0  0  0  0  0  0  0
    8.3720   -4.1020   -9.4766 C   0  0  0  0  0  0  0  0  0  0  0  0
    8.3137   -2.7033   -8.8284 C   0  0  0  0  0  0  0  0  0  0  0  0
    5.1932    0.3004   -8.9570 C   0  0  0  0  0  0  0  0  0  0  0  0
    5.8613    1.2145   -8.1640 C   0  0  0  0  0  0  0  0  0  0  0  0
    6.1814    2.4618   -8.6666 C   0  0  0  0  0  0  0  0  0  0  0  0
    5.8339    2.7948   -9.9625 C   0  0  0  0  0  0  0  0  0  0  0  0
    5.1666    1.8803  -10.7558 C   0  0  0  0  0  0  0  0  0  0  0  0
    4.8503    0.6315  -10.2546 C   0  0  0  0  0  0  0  0  0  0  0  0
    6.2409    4.3851  -10.6028 S   0  0  0  0  0  0  0  0  0  0  0  0
    5.3246    4.6449  -11.6574 O   0  0  0  0  0  0  0  0  0  0  0  0
    6.3799    5.2500   -9.4840 O   0  0  0  0  0  0  0  0  0  0  0  0
    7.7396    4.2645  -11.2969 N   0  0  0  0  0  0  0  0  0  0  0  0
    7.9359    3.4132  -12.4729 C   0  0  0  0  0  0  0  0  0  0  0  0
    9.2526    3.7510  -13.1234 C   0  0  0  0  0  0  0  0  0  0  0  0
    9.9613    4.6221  -12.6488 O   0  0  0  0  0  0  0  0  0  0  0  0
    9.6091    3.1532  -14.1244 O   0  0  0  0  0  1  0  0  0  0  0  0
    0.4176    0.8808   -0.0477 H   0  0  0  0  0  0  0  0  0  0  0  0
   -1.0898    0.8189   -0.9923 H   0  0  0  0  0  0  0  0  0  0  0  0
   -1.1459    0.6953    0.7825 H   0  0  0  0  0  0  0  0  0  0  0  0
   -0.0570   -3.5221   -0.6983 H   0  0  0  0  0  0  0  0  0  0  0  0
    1.1832   -4.4272   -2.6163 H   0  0  0  0  0  0  0  0  0  0  0  0
    3.7806   -2.8759   -6.8335 H   0  0  0  0  0  0  0  0  0  0  0  0
    6.6963   -1.1581   -7.3130 H   0  0  0  0  0  0  0  0  0  0  0  0
    5.8678   -2.7225   -7.4995 H   0  0  0  0  0  0  0  0  0  0  0  0
    7.1334   -1.1674   -9.8046 H   0  0  0  0  0  0  0  0  0  0  0  0
    5.5699   -3.7316   -9.5245 H   0  0  0  0  0  0  0  0  0  0  0  0
    5.7174   -2.6380  -10.9359 H   0  0  0  0  0  0  0  0  0  0  0  0
    7.0352   -4.9900  -10.9626 H   0  0  0  0  0  0  0  0  0  0  0  0
    7.8854   -3.5135  -11.5262 H   0  0  0  0  0  0  0  0  0  0  0  0
    8.0315   -4.8625   -8.7740 H   0  0  0  0  0  0  0  0  0  0  0  0
    9.3833   -4.3223   -9.8183 H   0  0  0  0  0  0  0  0  0  0  0  0
    9.1349   -2.0874   -9.1951 H   0  0  0  0  0  0  0  0  0  0  0  0
    8.3685   -2.7920   -7.7434 H   0  0  0  0  0  0  0  0  0  0  0  0
    6.1328    0.9544   -7.1516 H   0  0  0  0  0  0  0  0  0  0  0  0
    6.7027    3.1763   -8.0468 H   0  0  0  0  0  0  0  0  0  0  0  0
    4.8948    2.1406  -11.7681 H   0  0  0  0  0  0  0  0  0  0  0  0
    4.3323   -0.0843  -10.8756 H   0  0  0  0  0  0  0  0  0  0  0  0
    8.4875    4.7576  -10.9248 H   0  0  0  0  0  0  0  0  0  0  0  0
    7.9394    2.3669  -12.1675 H   0  0  0  0  0  0  0  0  0  0  0  0
    7.1261    3.5818  -13.1827 H   0  0  0  0  0  0  0  0  0  0  0  0
  1  2  1  0  0  0  0
  1 37  1  0  0  0  0
  1 38  1  0  0  0  0
  1 39  1  0  0  0  0
  2  3  1  0  0  0  0
  3  8  2  0  0  0  0
  3  4  1  0  0  0  0
  4  5  2  0  0  0  0
  4 40  1  0  0  0  0
  5  6  1  0  0  0  0
  5 41  1  0  0  0  0
  6 11  1  0  0  0  0
  6  7  2  0  0  0  0
  7  8  1  0  0  0  0
  7  9  1  0  0  0  0
  9 10  1  0  0  0  0
 10 11  2  0  0  0  0
 10 12  1  0  0  0  0
 12 13  1  0  0  0  0
 12 42  1  0  0  0  0
 13 14  2  0  0  0  0
 13 15  1  0  0  0  0
 15 16  1  6  0  0  0
 15 17  1  0  0  0  0
 15 23  1  0  0  0  0
 17 18  1  0  0  0  0
 17 43  1  0  0  0  0
 17 44  1  0  0  0  0
 18 22  1  0  0  0  0
 18 19  1  0  0  0  0
 18 45  1  0  0  0  0
 19 20  1  0  0  0  0
 19 46  1  0  0  0  0
 19 47  1  0  0  0  0
 20 21  1  0  0  0  0
 20 48  1  0  0  0  0
 20 49  1  0  0  0  0
 21 22  1  0  0  0  0
 21 50  1  0  0  0  0
 21 51  1  0  0  0  0
 22 52  1  0  0  0  0
 22 53  1  0  0  0  0
 23 28  2  0  0  0  0
 23 24  1  0  0  0  0
 24 25  2  0  0  0  0
 24 54  1  0  0  0  0
 25 26  1  0  0  0  0
 25 55  1  0  0  0  0
 26 27  2  0  0  0  0
 26 29  1  0  0  0  0
 27 28  1  0  0  0  0
 27 56  1  0  0  0  0
 28 57  1  0  0  0  0
 29 30  2  0  0  0  0
 29 31  2  0  0  0  0
 29 32  1  0  0  0  0
 32 33  1  0  0  0  0
 32 58  1  0  0  0  0
 33 34  1  0  0  0  0
 33 59  1  0  0  0  0
 33 60  1  0  0  0  0
 34 35  2  0  0  0  0
 34 36  1  0  0  0  0
M  END
$$$$
ZINC13014809
 OpenBabel01252620473D

 37 37  0  0  0  0  0  0  0  0999 V2000
   -0.6422    3.2588   -5.1339 C   0  0  0  0  0  0  0  0  0  0  0  0
    0.2148    4.2472   -5.9274 C   0  0  0  0  0  0  0  0  0  0  0  0
    1.5743    3.6142   -6.2308 C   0  0  0  0  0  0  0  0  0  0  0  0
    2.3840    4.5514   -7.1292 C   0  0  0  0  0  0  0  0  0  0  0  0
    3.6908    3.8665   -7.5344 C   0  0  0  0  0  0  0  0  0  0  0  0
    2.2997    3.3913   -4.9778 N   0  0  0  0  0  0  0  0  0  0  0  0
    2.0818    2.2694   -4.2633 C   0  0  0  0  0  0  0  0  0  0  0  0
    1.2850    1.4445   -4.6578 O   0  0  0  0  0  0  0  0  0  0  0  0
    2.8280    2.0401   -2.9744 C   0  0  0  0  0  0  0  0  0  0  0  0
    2.4271    0.7910   -2.4076 O   0  0  0  0  0  0  0  0  0  0  0  0
    3.0092    0.4311   -1.2360 C   0  0  0  0  0  0  0  0  0  0  0  0
    4.1860   -0.3043   -1.2397 C   0  0  0  0  0  0  0  0  0  0  0  0
    4.7756   -0.6751   -0.0463 C   0  0  0  0  0  0  0  0  0  0  0  0
    4.2017   -0.3126    1.1619 C   0  0  0  0  0  0  0  0  0  0  0  0
    3.0344    0.4237    1.1848 C   0  0  0  0  0  0  0  0  0  0  0  0
    2.4275    0.8054   -0.0168 C   0  0  0  0  0  0  0  0  0  0  0  0
    1.1812    1.5909   -0.0007 C   0  0  0  0  0  0  0  0  0  0  0  0
    1.2284    2.8052    0.0054 O   0  0  0  0  0  0  0  0  0  0  0  0
    2.3209    0.8758    2.7014 Cl  0  0  0  0  0  0  0  0  0  0  0  0
    4.9544   -0.7860    2.6529 Cl  0  0  0  0  0  0  0  0  0  0  0  0
    4.9155   -0.7644   -2.7463 Cl  0  0  0  0  0  0  0  0  0  0  0  0
   -0.7867    2.3512   -5.7199 H   0  0  0  0  0  0  0  0  0  0  0  0
   -0.1397    3.0115   -4.1988 H   0  0  0  0  0  0  0  0  0  0  0  0
   -1.6107    3.7098   -4.9177 H   0  0  0  0  0  0  0  0  0  0  0  0
    0.3592    5.1548   -5.3414 H   0  0  0  0  0  0  0  0  0  0  0  0
   -0.2877    4.4945   -6.8625 H   0  0  0  0  0  0  0  0  0  0  0  0
    1.4261    2.6616   -6.7394 H   0  0  0  0  0  0  0  0  0  0  0  0
    1.8057    4.7881   -8.0223 H   0  0  0  0  0  0  0  0  0  0  0  0
    2.6082    5.4702   -6.5874 H   0  0  0  0  0  0  0  0  0  0  0  0
    4.2690    3.6297   -6.6413 H   0  0  0  0  0  0  0  0  0  0  0  0
    3.4665    2.9476   -8.0762 H   0  0  0  0  0  0  0  0  0  0  0  0
    4.2676    4.5341   -8.1744 H   0  0  0  0  0  0  0  0  0  0  0  0
    2.9370    4.0511   -4.6623 H   0  0  0  0  0  0  0  0  0  0  0  0
    2.6021    2.8454   -2.2754 H   0  0  0  0  0  0  0  0  0  0  0  0
    3.8996    2.0216   -3.1732 H   0  0  0  0  0  0  0  0  0  0  0  0
    5.6894   -1.2506   -0.0552 H   0  0  0  0  0  0  0  0  0  0  0  0
   -0.0110    0.9628    0.0073 O   0  0  0  0  0  1  0  0  0  0  0  0
  1  2  1  0  0  0  0
  1 22  1  0  0  0  0
  1 23  1  0  0  0  0
  1 24  1  0  0  0  0
  2  3  1  0  0  0  0
  2 25  1  0  0  0  0
  2 26  1  0  0  0  0
  3  4  1  0  0  0  0
  3  6  1  0  0  0  0
  3 27  1  0  0  0  0
  4  5  1  0  0  0  0
  4 28  1  0  0  0  0
  4 29  1  0  0  0  0
  5 30  1  0  0  0  0
  5 31  1  0  0  0  0
  5 32  1  0  0  0  0
  6  7  1  0  0  0  0
  6 33  1  0  0  0  0
  7  8  2  0  0  0  0
  7  9  1  0  0  0  0
  9 10  1  0  0  0  0
  9 34  1  0  0  0  0
  9 35  1  0  0  0  0
 10 11  1  0  0  0  0
 11 16  2  0  0  0  0
 11 12  1  0  0  0  0
 12 13  2  0  0  0  0
 12 21  1  0  0  0  0
 13 14  1  0  0  0  0
 13 36  1  0  0  0  0
 14 15  2  0  0  0  0
 14 20  1  0  0  0  0
 15 16  1  0  0  0  0
 15 19  1  0  0  0  0
 16 17  1  0  0  0  0
 17 18  2  0  0  0  0
 17 37  1  0  0  0  0
M  END
$$$$
ZINC61149298
 OpenBabel01252620473D

 42 42  0  0  0  0  0  0  0  0999 V2000
    0.0998    1.6223    0.1419 C   0  0  0  0  0  0  0  0  0  0  0  0
    0.0030    0.0965    0.0817 C   0  0  0  0  0  0  0  0  0  0  0  0
    0.7144   -0.4834    1.2235 N   0  0  0  0  0  0  0  0  0  0  0  0
    0.0611   -0.7089    2.3806 C   0  0  0  0  0  0  0  0  0  0  0  0
    0.6501   -1.1890    3.3259 O   0  0  0  0  0  0  0  0  0  0  0  0
   -1.4012   -0.3647    2.4997 C   0  0  0  0  0  0  0  0  0  0  0  0
   -1.9871   -0.7826    4.1649 S   0  0  0  0  0  0  0  0  0  0  0  0
   -3.7393   -0.3139    4.1441 C   0  0  0  0  0  0  0  0  0  0  0  0
   -4.3553   -0.6130    5.4865 C   0  0  0  0  0  0  0  0  0  0  0  0
   -4.9626   -1.8239    5.8647 C   0  0  0  0  0  0  0  0  0  0  0  0
   -5.3744   -1.7027    7.0950 N   0  0  0  0  0  0  0  0  0  0  0  0
   -5.0390   -0.4009    7.5405 O   0  0  0  0  0  0  0  0  0  0  0  0
   -4.4148    0.2308    6.5347 C   0  0  0  0  0  0  0  0  0  0  0  0
   -3.8779    1.6384    6.5702 C   0  0  0  0  0  0  0  0  0  0  0  0
   -5.1115   -3.0478    4.9981 C   0  0  0  0  0  0  0  0  0  0  0  0
    2.1360   -0.8181    1.1077 C   0  0  0  0  0  0  0  0  0  0  0  0
    2.6323   -0.4572   -0.2938 C   0  0  0  0  0  0  0  0  0  0  0  0
    2.9321   -0.0295    2.1495 C   0  0  0  0  0  0  0  0  0  0  0  0
    2.3252   -2.2945    1.3429 C   0  0  0  0  0  0  0  0  0  0  0  0
    1.3543   -3.0213    1.4676 O   0  0  0  0  0  0  0  0  0  0  0  0
    3.4492   -2.7622    1.4085 O   0  0  0  0  0  1  0  0  0  0  0  0
    1.1473    1.9216    0.1074 H   0  0  0  0  0  0  0  0  0  0  0  0
   -0.4295    2.0537   -0.7076 H   0  0  0  0  0  0  0  0  0  0  0  0
   -0.3496    1.9785    1.0689 H   0  0  0  0  0  0  0  0  0  0  0  0
   -1.0445   -0.2028    0.1162 H   0  0  0  0  0  0  0  0  0  0  0  0
    0.4523   -0.2597   -0.8453 H   0  0  0  0  0  0  0  0  0  0  0  0
   -1.5388    0.7021    2.3233 H   0  0  0  0  0  0  0  0  0  0  0  0
   -1.9691   -0.9313    1.7619 H   0  0  0  0  0  0  0  0  0  0  0  0
   -3.8279    0.7518    3.9331 H   0  0  0  0  0  0  0  0  0  0  0  0
   -4.2582   -0.8815    3.3716 H   0  0  0  0  0  0  0  0  0  0  0  0
   -4.6531    2.3313    6.2428 H   0  0  0  0  0  0  0  0  0  0  0  0
   -3.5751    1.8863    7.5875 H   0  0  0  0  0  0  0  0  0  0  0  0
   -3.0172    1.7159    5.9059 H   0  0  0  0  0  0  0  0  0  0  0  0
   -4.2415   -3.6918    5.1264 H   0  0  0  0  0  0  0  0  0  0  0  0
   -6.0113   -3.5906    5.2876 H   0  0  0  0  0  0  0  0  0  0  0  0
   -5.1894   -2.7461    3.9536 H   0  0  0  0  0  0  0  0  0  0  0  0
    2.4955    0.6107   -0.4639 H   0  0  0  0  0  0  0  0  0  0  0  0
    3.6900   -0.7062   -0.3800 H   0  0  0  0  0  0  0  0  0  0  0  0
    2.0652   -1.0189   -1.0360 H   0  0  0  0  0  0  0  0  0  0  0  0
    2.5785   -0.2866    3.1480 H   0  0  0  0  0  0  0  0  0  0  0  0
    3.9898   -0.2785    2.0633 H   0  0  0  0  0  0  0  0  0  0  0  0
    2.7952    1.0384    1.9793 H   0  0  0  0  0  0  0  0  0  0  0  0
  1  2  1  0  0  0  0
  1 22  1  0  0  0  0
  1 23  1  0  0  0  0
  1 24  1  0  0  0  0
  2  3  1  0  0  0  0
  2 25  1  0  0  0  0
  2 26  1  0  0  0  0
  3  4  1  0  0  0  0
  3 16  1  0  0  0  0
  4  5  2  0  0  0  0
  4  6  1  0  0  0  0
  6  7  1  0  0  0  0
  6 27  1  0  0  0  0
  6 28  1  0  0  0  0
  7  8  1  0  0  0  0
  8  9  1  0  0  0  0
  8 29  1  0  0  0  0
  8 30  1  0  0  0  0
  9 13  2  0  0  0  0
  9 10  1  0  0  0  0
 10 11  2  0  0  0  0
 10 15  1  0  0  0  0
 11 12  1  0  0  0  0
 12 13  1  0  0  0  0
 13 14  1  0  0  0  0
 14 31  1  0  0  0  0
 14 32  1  0  0  0  0
 14 33  1  0  0  0  0
 15 34  1  0  0  0  0
 15 35  1  0  0  0  0
 15 36  1  0  0  0  0
 16 17  1  0  0  0  0
 16 18  1  0  0  0  0
 16 19  1  0  0  0  0
 17 37  1  0  0  0  0
 17 38  1  0  0  0  0
 17 39  1  0  0  0  0
 18 40  1  0  0  0  0
 18 41  1  0  0  0  0
 18 42  1  0  0  0  0
 19 20  2  0  0  0  0
 19 21  1  0  0  0  0
M  END
$$$$
ZINC64669851
 OpenBabel01252620473D

 40 41  0  0  0  0  0  0  0  0999 V2000
   -0.0173    1.4248    0.0099 C   0  0  0  0  0  0  0  0  0  0  0  0
    0.0021   -0.0041    0.0020 O   0  0  0  0  0  0  0  0  0  0  0  0
   -1.2953   -0.6030    0.0112 C   0  0  0  0  0  0  0  0  0  0  0  0
   -1.1538   -2.1264    0.0017 C   0  0  0  0  0  0  0  0  0  0  0  0
   -2.5429   -2.7677    0.0115 C   0  0  0  0  0  0  0  0  0  0  0  0
   -2.4075   -4.2264    0.0023 N   0  0  0  0  0  0  0  0  0  0  0  0
   -3.5182   -5.0131    0.0087 C   0  0  0  0  0  0  0  0  0  0  0  0
   -4.7415   -4.4507    0.0234 O   0  5  0  0  0  0  0  0  0  0  0  0
   -3.3893   -6.4015    0.0000 C   0  0  0  0  0  0  0  0  0  0  0  0
   -2.0883   -6.9997   -0.0156 C   0  0  0  0  0  0  0  0  0  0  0  0
   -1.0563   -7.4742   -0.0280 N   0  0  0  0  0  0  0  0  0  0  0  0
   -4.5831   -7.2470    0.0069 C   0  0  0  0  0  0  0  0  0  0  0  0
   -5.6901   -6.7380    0.0202 O   0  0  0  0  0  0  0  0  0  0  0  0
   -4.4467   -8.7155   -0.0023 C   0  0  0  0  0  0  0  0  0  0  0  0
   -5.5580   -9.5156   -0.0011 C   0  0  0  0  0  0  0  0  0  0  0  0
   -4.8932  -11.0618   -0.0135 S   0  0  0  0  0  0  0  0  0  0  0  0
   -3.1705  -10.5976   -0.0197 C   0  0  0  0  0  0  0  0  0  0  0  0
   -3.2468   -9.2786   -0.0173 N   0  0  0  0  0  0  0  0  0  0  0  0
   -1.9714  -11.4626   -0.0301 C   0  0  0  0  0  0  0  0  0  0  0  0
   -0.6970  -10.8941   -0.0273 C   0  0  0  0  0  0  0  0  0  0  0  0
    0.4178  -11.7064   -0.0371 C   0  0  0  0  0  0  0  0  0  0  0  0
    0.2760  -13.0830   -0.0497 C   0  0  0  0  0  0  0  0  0  0  0  0
   -0.9828  -13.6549   -0.0531 C   0  0  0  0  0  0  0  0  0  0  0  0
   -2.1090  -12.8530   -0.0371 C   0  0  0  0  0  0  0  0  0  0  0  0
   -3.3388  -13.4122   -0.0338 F   0  0  0  0  0  0  0  0  0  0  0  0
    1.0053    1.8021    0.0021 H   0  0  0  0  0  0  0  0  0  0  0  0
   -0.5445    1.7859   -0.8732 H   0  0  0  0  0  0  0  0  0  0  0  0
   -0.5275    1.7763    0.9067 H   0  0  0  0  0  0  0  0  0  0  0  0
   -1.8320   -0.2936    0.9080 H   0  0  0  0  0  0  0  0  0  0  0  0
   -1.8490   -0.2840   -0.8718 H   0  0  0  0  0  0  0  0  0  0  0  0
   -0.6171   -2.4359   -0.8952 H   0  0  0  0  0  0  0  0  0  0  0  0
   -0.6001   -2.4454    0.8847 H   0  0  0  0  0  0  0  0  0  0  0  0
   -3.0796   -2.4582    0.9083 H   0  0  0  0  0  0  0  0  0  0  0  0
   -3.0966   -2.4487   -0.8716 H   0  0  0  0  0  0  0  0  0  0  0  0
   -1.5262   -4.6316   -0.0082 H   0  0  0  0  0  0  0  0  0  0  0  0
   -6.5987   -9.2271    0.0059 H   0  0  0  0  0  0  0  0  0  0  0  0
   -0.5837   -9.8201   -0.0178 H   0  0  0  0  0  0  0  0  0  0  0  0
    1.4043  -11.2667   -0.0353 H   0  0  0  0  0  0  0  0  0  0  0  0
    1.1528  -13.7135   -0.0574 H   0  0  0  0  0  0  0  0  0  0  0  0
   -1.0865  -14.7298   -0.0633 H   0  0  0  0  0  0  0  0  0  0  0  0
  1  2  1  0  0  0  0
  1 26  1  0  0  0  0
  1 27  1  0  0  0  0
  1 28  1  0  0  0  0
  2  3  1  0  0  0  0
  3  4  1  0  0  0  0
  3 29  1  0  0  0  0
  3 30  1  0  0  0  0
  4  5  1  0  0  0  0
  4 31  1  0  0  0  0
  4 32  1  0  0  0  0
  5  6  1  0  0  0  0
  5 33  1  0  0  0  0
  5 34  1  0  0  0  0
  6  7  1  0  0  0  0
  6 35  1  0  0  0  0
  7  8  1  0  0  0  0
  7  9  2  0  0  0  0
  9 10  1  0  0  0  0
  9 12  1  0  0  0  0
 10 11  3  0  0  0  0
 12 13  2  0  0  0  0
 12 14  1  0  0  0  0
 14 18  1  0  0  0  0
 14 15  2  0  0  0  0
 15 16  1  0  0  0  0
 15 36  1  0  0  0  0
 16 17  1  0  0  0  0
 17 18  2  0  0  0  0
 17 19  1  0  0  0  0
 19 24  2  0  0  0  0
 19 20  1  0  0  0  0
 20 21  2  0  0  0  0
 20 37  1  0  0  0  0
 21 22  1  0  0  0  0
 21 38  1  0  0  0  0
 22 23  2  0  0  0  0
 22 39  1  0  0  0  0
 23 24  1  0  0  0  0
 23 40  1  0  0  0  0
 24 25  1  0  0  0  0
M  CHG  1   8  -1
M  END
$$$$
ZINC04337098
 OpenBabel01252620473D

 46 47  0  0  1  0  0  0  0  0999 V2000
   12.3255   -1.3060    2.1941 C   0  0  0  0  0  0  0  0  0  0  0  0
   11.0873   -1.5348    1.5183 O   0  0  0  0  0  0  0  0  0  0  0  0
   11.2356   -2.0016    0.1758 C   0  0  0  0  0  0  0  0  0  0  0  0
    9.8538   -2.2111   -0.4468 C   0  0  0  0  0  0  0  0  0  0  0  0
    9.1678   -0.9215   -0.5584 N   0  0  0  0  0  0  0  0  0  0  0  0
    7.9274   -0.8611   -1.0821 C   0  0  0  0  0  0  0  0  0  0  0  0
    7.3788   -1.8749   -1.4611 O   0  0  0  0  0  0  0  0  0  0  0  0
    7.2276    0.4546   -1.1960 C   0  0  0  0  0  0  0  0  0  0  0  0
    7.7762    1.4684   -0.8170 O   0  0  0  0  0  0  0  0  0  0  0  0
    5.9872    0.5150   -1.7197 N   0  0  0  0  0  0  0  0  0  0  0  0
    5.3013    1.8046   -1.8313 C   0  0  0  0  0  0  0  0  0  0  0  0
    3.9195    1.5951   -2.4539 C   0  0  2  0  0  0  0  0  0  0  0  0
    3.4097    2.5539   -2.5486 H   0  0  0  0  0  0  0  0  0  0  0  0
    3.1247    0.6918   -1.6061 N   0  0  0  0  0  0  0  0  0  0  0  0
    2.7737   -0.4671   -2.4566 C   0  0  0  0  0  0  0  0  0  0  0  0
    2.9229    0.1059   -3.8904 C   0  0  0  0  0  0  0  0  0  0  0  0
    4.0584    0.9907   -3.7505 O   0  0  0  0  0  0  0  0  0  0  0  0
    2.7126    0.9224   -0.0189 S   0  0  0  0  0  0  0  0  0  0  0  0
    3.6805    1.8078    0.5275 O   0  0  0  0  0  0  0  0  0  0  0  0
    2.4638   -0.3655    0.5274 O   0  0  0  0  0  0  0  0  0  0  0  0
    1.1752    1.7831    0.0004 C   0  0  0  0  0  0  0  0  0  0  0  0
   -0.0126    1.0758    0.0080 C   0  0  0  0  0  0  0  0  0  0  0  0
   -1.2189    1.7504    0.0173 C   0  0  0  0  0  0  0  0  0  0  0  0
   -1.2374    3.1338    0.0302 C   0  0  0  0  0  0  0  0  0  0  0  0
   -0.0484    3.8411    0.0231 C   0  0  0  0  0  0  0  0  0  0  0  0
    1.1572    3.1654    0.0085 C   0  0  0  0  0  0  0  0  0  0  0  0
   -2.7521    3.9817    0.0482 Cl  0  0  0  0  0  0  0  0  0  0  0  0
   12.8928   -2.2357    2.2377 H   0  0  0  0  0  0  0  0  0  0  0  0
   12.9008   -0.5543    1.6539 H   0  0  0  0  0  0  0  0  0  0  0  0
   12.1271   -0.9536    3.2064 H   0  0  0  0  0  0  0  0  0  0  0  0
   11.7803   -2.9457    0.1775 H   0  0  0  0  0  0  0  0  0  0  0  0
   11.7883   -1.2642   -0.4063 H   0  0  0  0  0  0  0  0  0  0  0  0
    9.2687   -2.8804    0.1840 H   0  0  0  0  0  0  0  0  0  0  0  0
    9.9647   -2.6506   -1.4380 H   0  0  0  0  0  0  0  0  0  0  0  0
    9.6063   -0.1110   -0.2554 H   0  0  0  0  0  0  0  0  0  0  0  0
    5.5487   -0.2954   -2.0226 H   0  0  0  0  0  0  0  0  0  0  0  0
    5.8863    2.4739   -2.4621 H   0  0  0  0  0  0  0  0  0  0  0  0
    5.1903    2.2442   -0.8401 H   0  0  0  0  0  0  0  0  0  0  0  0
    3.4687   -1.2907   -2.2933 H   0  0  0  0  0  0  0  0  0  0  0  0
    1.7472   -0.7844   -2.2727 H   0  0  0  0  0  0  0  0  0  0  0  0
    2.0323    0.6616   -4.1841 H   0  0  0  0  0  0  0  0  0  0  0  0
    3.1372   -0.6900   -4.6037 H   0  0  0  0  0  0  0  0  0  0  0  0
    0.0021   -0.0041    0.0020 H   0  0  0  0  0  0  0  0  0  0  0  0
   -2.1468    1.1978    0.0184 H   0  0  0  0  0  0  0  0  0  0  0  0
   -0.0623    4.9210    0.0287 H   0  0  0  0  0  0  0  0  0  0  0  0
    2.0855    3.7174    0.0029 H   0  0  0  0  0  0  0  0  0  0  0  0
  1  2  1  0  0  0  0
  1 28  1  0  0  0  0
  1 29  1  0  0  0  0
  1 30  1  0  0  0  0
  2  3  1  0  0  0  0
  3  4  1  0  0  0  0
  3 31  1  0  0  0  0
  3 32  1  0  0  0  0
  4  5  1  0  0  0  0
  4 33  1  0  0  0  0
  4 34  1  0  0  0  0
  5  6  1  0  0  0  0
  5 35  1  0  0  0  0
  6  7  2  0  0  0  0
  6  8  1  0  0  0  0
  8  9  2  0  0  0  0
  8 10  1  0  0  0  0
 10 11  1  0  0  0  0
 10 36  1  0  0  0  0
 11 12  1  0  0  0  0
 11 37  1  0  0  0  0
 11 38  1  0  0  0  0
 12 13  1  6  0  0  0
 12 17  1  0  0  0  0
 12 14  1  0  0  0  0
 14 15  1  0  0  0  0
 14 18  1  0  0  0  0
 15 16  1  0  0  0  0
 15 39  1  0  0  0  0
 15 40  1  0  0  0  0
 16 17  1  0  0  0  0
 16 41  1  0  0  0  0
 16 42  1  0  0  0  0
 18 19  2  0  0  0  0
 18 20  2  0  0  0  0
 18 21  1  0  0  0  0
 21 26  2  0  0  0  0
 21 22  1  0  0  0  0
 22 23  2  0  0  0  0
 22 43  1  0  0  0  0
 23 24  1  0  0  0  0
 23 44  1  0  0  0  0
 24 25  2  0  0  0  0
 24 27  1  0  0  0  0
 25 26  1  0  0  0  0
 25 45  1  0  0  0  0
 26 46  1  0  0  0  0
M  END
$$$$
ZINC21949028
 OpenBabel01252620473D

 24 25  0  0  0  0  0  0  0  0999 V2000
    2.8438    4.9355    1.8691 C   0  0  0  0  0  0  0  0  0  0  0  0
    2.6093    3.7999    2.6141 C   0  0  0  0  0  0  0  0  0  0  0  0
    1.5139    3.0315    2.3147 C   0  0  0  0  0  0  0  0  0  0  0  0
    0.8006    3.9268    0.9446 S   0  0  0  0  0  0  0  0  0  0  0  0
    1.9878    5.2576    0.8665 C   0  0  0  0  0  0  0  0  0  0  0  0
    1.0498    1.7870    2.9535 C   0  0  0  0  0  0  0  0  0  0  0  0
    1.2811    1.5484    4.2648 C   0  0  0  0  0  0  0  0  0  0  0  0
    0.5217   -0.0513    4.4844 S   0  0  0  0  0  0  0  0  0  0  0  0
   -0.0428   -0.2877    2.8616 C   0  0  0  0  0  0  0  0  0  0  0  0
   -0.6574   -1.2324    2.3994 O   0  0  0  0  0  0  0  0  0  0  0  0
    0.3708    0.8373    2.2378 N   0  0  0  0  0  0  0  0  0  0  0  0
    0.0909    1.0413    0.8144 C   0  0  0  0  0  0  0  0  0  0  0  0
   -1.3341    1.5723    0.6458 C   0  0  0  0  0  0  0  0  0  0  0  0
   -1.6220    1.7822   -0.8185 C   0  0  0  0  0  0  0  0  0  0  0  0
   -0.7745    1.5326   -1.6427 O   0  0  0  0  0  0  0  0  0  0  0  0
   -2.8200    2.2463   -1.2071 O   0  0  0  0  0  1  0  0  0  0  0  0
    3.6980    5.5615    2.0808 H   0  0  0  0  0  0  0  0  0  0  0  0
    3.2747    3.5211    3.4177 H   0  0  0  0  0  0  0  0  0  0  0  0
    2.0193    6.1002    0.1916 H   0  0  0  0  0  0  0  0  0  0  0  0
    1.7923    2.1648    4.9894 H   0  0  0  0  0  0  0  0  0  0  0  0
    0.8047    1.7690    0.4010 H   0  0  0  0  0  0  0  0  0  0  0  0
    0.1915    0.0850    0.2802 H   0  0  0  0  0  0  0  0  0  0  0  0
   -2.0479    0.8445    1.0592 H   0  0  0  0  0  0  0  0  0  0  0  0
   -1.4347    2.5286    1.1800 H   0  0  0  0  0  0  0  0  0  0  0  0
  1  5  2  0  0  0  0
  1  2  1  0  0  0  0
  1 17  1  0  0  0  0
  2  3  2  0  0  0  0
  2 18  1  0  0  0  0
  3  4  1  0  0  0  0
  3  6  1  0  0  0  0
  4  5  1  0  0  0  0
  5 19  1  0  0  0  0
  6 11  1  0  0  0  0
  6  7  2  0  0  0  0
  7  8  1  0  0  0  0
  7 20  1  0  0  0  0
  8  9  1  0  0  0  0
  9 10  2  0  0  0  0
  9 11  1  0  0  0  0
 11 12  1  0  0  0  0
 12 13  1  0  0  0  0
 12 21  1  0  0  0  0
 12 22  1  0  0  0  0
 13 14  1  0  0  0  0
 13 23  1  0  0  0  0
 13 24  1  0  0  0  0
 14 15  2  0  0  0  0
 14 16  1  0  0  0  0
M  END
$$$$
ZINC06995664
 OpenBabel01252620473D

 56 58  0  0  1  0  0  0  0  0999 V2000
   -1.1889   -0.8847   -0.2837 C   0  0  0  0  0  0  0  0  0  0  0  0
    0.0090    0.0212    0.0083 C   0  0  0  0  0  0  0  0  0  0  0  0
    0.7360   -0.4847    1.2275 C   0  0  0  0  0  0  0  0  0  0  0  0
    0.3747   -0.0325    2.4834 C   0  0  0  0  0  0  0  0  0  0  0  0
    1.0390   -0.4943    3.6028 C   0  0  0  0  0  0  0  0  0  0  0  0
    2.0706   -1.4140    3.4661 C   0  0  0  0  0  0  0  0  0  0  0  0
    2.4307   -1.8664    2.2035 C   0  0  0  0  0  0  0  0  0  0  0  0
    1.7592   -1.4044    1.0885 C   0  0  0  0  0  0  0  0  0  0  0  0
    2.7459   -1.8834    4.5981 N   0  0  0  0  0  0  0  0  0  0  0  0
    2.0854   -2.0323    5.7634 C   0  0  0  0  0  0  0  0  0  0  0  0
    0.8869   -1.8517    5.8085 O   0  0  0  0  0  0  0  0  0  0  0  0
    2.8359   -2.4234    7.0103 C   0  0  0  0  0  0  0  0  0  0  0  0
    1.8587   -2.5237    8.1833 C   0  0  1  0  0  0  0  0  0  0  0  0
    1.0340   -3.1972    7.9503 H   0  0  0  0  0  0  0  0  0  0  0  0
    2.5706   -2.9449    9.4590 C   0  0  0  0  0  0  0  0  0  0  0  0
    2.5371   -2.0724   10.4517 N   0  0  0  0  0  0  0  0  0  0  0  0
    1.8987   -0.8549   10.3458 C   0  0  0  0  0  0  0  0  0  0  0  0
    1.7965    0.0901   11.2545 N   0  0  0  0  0  0  0  0  0  0  0  0
    1.1024    1.2713   10.9617 N   0  0  0  0  0  0  0  0  0  0  0  0
    1.0018    2.2011   11.8558 C   0  0  0  0  0  0  0  0  0  0  0  0
    1.6312    2.0135   13.2121 C   0  0  0  0  0  0  0  0  0  0  0  0
    0.2551    3.4717   11.5408 C   0  0  0  0  0  0  0  0  0  0  0  0
   -0.9841    3.5694   12.4328 C   0  0  0  0  0  0  0  0  0  0  0  0
   -1.7422    4.8594   12.1130 C   0  0  0  0  0  0  0  0  0  0  0  0
   -2.1705    4.8486   10.6443 C   0  0  0  0  0  0  0  0  0  0  0  0
   -0.9312    4.7508    9.7523 C   0  0  0  0  0  0  0  0  0  0  0  0
   -0.1732    3.4608   10.0721 C   0  0  0  0  0  0  0  0  0  0  0  0
    1.2428   -0.8626    8.6825 S   0  0  0  0  0  0  0  0  0  0  0  0
    3.1334   -4.0143    9.5598 O   0  0  0  0  0  0  0  0  0  0  0  0
   -1.8653   -0.8794    0.5710 H   0  0  0  0  0  0  0  0  0  0  0  0
   -1.7148   -0.5188   -1.1655 H   0  0  0  0  0  0  0  0  0  0  0  0
   -0.8400   -1.9014   -0.4646 H   0  0  0  0  0  0  0  0  0  0  0  0
    0.6854    0.0159   -0.8464 H   0  0  0  0  0  0  0  0  0  0  0  0
   -0.3399    1.0379    0.1892 H   0  0  0  0  0  0  0  0  0  0  0  0
   -0.4276    0.6827    2.5890 H   0  0  0  0  0  0  0  0  0  0  0  0
    0.7569   -0.1402    4.5833 H   0  0  0  0  0  0  0  0  0  0  0  0
    3.2327   -2.5813    2.0939 H   0  0  0  0  0  0  0  0  0  0  0  0
    2.0361   -1.7590    0.1066 H   0  0  0  0  0  0  0  0  0  0  0  0
    3.6895   -2.1016    4.5441 H   0  0  0  0  0  0  0  0  0  0  0  0
    3.3188   -3.3883    6.8562 H   0  0  0  0  0  0  0  0  0  0  0  0
    3.5919   -1.6698    7.2307 H   0  0  0  0  0  0  0  0  0  0  0  0
    2.6526    2.3938   13.1944 H   0  0  0  0  0  0  0  0  0  0  0  0
    1.0537    2.5579   13.9592 H   0  0  0  0  0  0  0  0  0  0  0  0
    1.6427    0.9530   13.4638 H   0  0  0  0  0  0  0  0  0  0  0  0
    0.9031    4.3288   11.7240 H   0  0  0  0  0  0  0  0  0  0  0  0
   -1.6321    2.7123   12.2496 H   0  0  0  0  0  0  0  0  0  0  0  0
   -0.6790    3.5772   13.4792 H   0  0  0  0  0  0  0  0  0  0  0  0
   -2.6250    4.9291   12.7485 H   0  0  0  0  0  0  0  0  0  0  0  0
   -1.0942    5.7165   12.2962 H   0  0  0  0  0  0  0  0  0  0  0  0
   -2.8185    3.9914   10.4611 H   0  0  0  0  0  0  0  0  0  0  0  0
   -2.7105    5.7676   10.4165 H   0  0  0  0  0  0  0  0  0  0  0  0
   -1.2363    4.7431    8.7059 H   0  0  0  0  0  0  0  0  0  0  0  0
   -0.2832    5.6079    9.9355 H   0  0  0  0  0  0  0  0  0  0  0  0
    0.7097    3.3912    9.4366 H   0  0  0  0  0  0  0  0  0  0  0  0
   -0.8212    2.6037    9.8889 H   0  0  0  0  0  0  0  0  0  0  0  0
    2.9779   -2.2974   11.2859 H   0  0  0  0  0  0  0  0  0  0  0  0
  1  2  1  0  0  0  0
  1 30  1  0  0  0  0
  1 31  1  0  0  0  0
  1 32  1  0  0  0  0
  2  3  1  0  0  0  0
  2 33  1  0  0  0  0
  2 34  1  0  0  0  0
  3  8  2  0  0  0  0
  3  4  1  0  0  0  0
  4  5  2  0  0  0  0
  4 35  1  0  0  0  0
  5  6  1  0  0  0  0
  5 36  1  0  0  0  0
  6  7  2  0  0  0  0
  6  9  1  0  0  0  0
  7  8  1  0  0  0  0
  7 37  1  0  0  0  0
  8 38  1  0  0  0  0
  9 10  1  0  0  0  0
  9 39  1  0  0  0  0
 10 11  2  0  0  0  0
 10 12  1  0  0  0  0
 12 13  1  0  0  0  0
 12 40  1  0  0  0  0
 12 41  1  0  0  0  0
 13 14  1  6  0  0  0
 13 28  1  0  0  0  0
 13 15  1  0  0  0  0
 15 16  1  0  0  0  0
 15 29  2  0  0  0  0
 16 17  1  0  0  0  0
 16 56  1  0  0  0  0
 17 18  2  0  0  0  0
 17 28  1  0  0  0  0
 18 19  1  0  0  0  0
 19 20  2  0  0  0  0
 20 21  1  0  0  0  0
 20 22  1  0  0  0  0
 21 42  1  0  0  0  0
 21 43  1  0  0  0  0
 21 44  1  0  0  0  0
 22 27  1  0  0  0  0
 22 23  1  0  0  0  0
 22 45  1  0  0  0  0
 23 24  1  0  0  0  0
 23 46  1  0  0  0  0
 23 47  1  0  0  0  0
 24 25  1  0  0  0  0
 24 48  1  0  0  0  0
 24 49  1  0  0  0  0
 25 26  1  0  0  0  0
 25 50  1  0  0  0  0
 25 51  1  0  0  0  0
 26 27  1  0  0  0  0
 26 52  1  0  0  0  0
 26 53  1  0  0  0  0
 27 54  1  0  0  0  0
 27 55  1  0  0  0  0
M  END
$$$$
ZINC49416771
 OpenBabel01252620473D

 32 33  0  0  0  0  0  0  0  0999 V2000
    0.2991    1.4826    1.2390 C   0  0  0  0  0  0  0  0  0  0  0  0
    0.2260    0.0222    0.8746 C   0  0  0  0  0  0  0  0  0  0  0  0
   -0.8383   -0.7237    0.7125 N   0  0  0  0  0  0  0  0  0  0  0  0
   -0.7402   -1.9982    0.3907 C   0  0  0  0  0  0  0  0  0  0  0  0
    0.5122   -2.4990    0.2359 C   0  0  0  0  0  0  0  0  0  0  0  0
    1.4921   -1.0442    0.5701 S   0  0  0  0  0  0  0  0  0  0  0  0
   -1.9622   -2.8600    0.2037 C   0  0  0  0  0  0  0  0  0  0  0  0
   -2.3973   -3.3789    1.5028 N   0  0  0  0  0  0  0  0  0  0  0  0
   -3.3564   -2.6210    2.3103 C   0  0  0  0  0  0  0  0  0  0  0  0
   -1.9152   -4.5534    1.9550 C   0  0  0  0  0  0  0  0  0  0  0  0
   -1.0453   -5.1326    1.3345 O   0  0  0  0  0  0  0  0  0  0  0  0
   -2.4448   -5.1376    3.2068 C   0  0  0  0  0  0  0  0  0  0  0  0
   -1.8731   -6.2470    3.7308 O   0  5  0  0  0  0  0  0  0  0  0  0
   -3.4656   -4.5822    3.8070 N   0  0  0  0  0  0  0  0  0  0  0  0
   -3.9495   -5.1160    4.9506 C   0  0  0  0  0  0  0  0  0  0  0  0
   -3.5422   -6.1848    5.6354 N   0  0  0  0  0  0  0  0  0  0  0  0
   -4.1585   -6.4964    6.6937 N   0  0  0  0  0  0  0  0  0  0  0  0
   -5.1837   -5.8018    7.1371 C   0  0  0  0  0  0  0  0  0  0  0  0
   -5.3121   -4.5845    5.9781 S   0  0  0  0  0  0  0  0  0  0  0  0
   -6.0233   -6.0315    8.3672 C   0  0  0  0  0  0  0  0  0  0  0  0
    1.3428    1.7933    1.2870 H   0  0  0  0  0  0  0  0  0  0  0  0
   -0.2211    2.0720    0.4839 H   0  0  0  0  0  0  0  0  0  0  0  0
   -0.1716    1.6389    2.2096 H   0  0  0  0  0  0  0  0  0  0  0  0
    0.8281   -3.4992   -0.0216 H   0  0  0  0  0  0  0  0  0  0  0  0
   -2.7625   -2.2650   -0.2364 H   0  0  0  0  0  0  0  0  0  0  0  0
   -1.7221   -3.6922   -0.4580 H   0  0  0  0  0  0  0  0  0  0  0  0
   -4.3634   -2.9939    2.1233 H   0  0  0  0  0  0  0  0  0  0  0  0
   -3.1154   -2.7394    3.3667 H   0  0  0  0  0  0  0  0  0  0  0  0
   -3.3039   -1.5660    2.0417 H   0  0  0  0  0  0  0  0  0  0  0  0
   -5.5883   -5.4938    9.2097 H   0  0  0  0  0  0  0  0  0  0  0  0
   -7.0359   -5.6695    8.1889 H   0  0  0  0  0  0  0  0  0  0  0  0
   -6.0532   -7.0975    8.5929 H   0  0  0  0  0  0  0  0  0  0  0  0
  1  2  1  0  0  0  0
  1 21  1  0  0  0  0
  1 22  1  0  0  0  0
  1 23  1  0  0  0  0
  2  6  1  0  0  0  0
  2  3  2  0  0  0  0
  3  4  1  0  0  0  0
  4  5  2  0  0  0  0
  4  7  1  0  0  0  0
  5  6  1  0  0  0  0
  5 24  1  0  0  0  0
  7  8  1  0  0  0  0
  7 25  1  0  0  0  0
  7 26  1  0  0  0  0
  8  9  1  0  0  0  0
  8 10  1  0  0  0  0
  9 27  1  0  0  0  0
  9 28  1  0  0  0  0
  9 29  1  0  0  0  0
 10 11  2  0  0  0  0
 10 12  1  0  0  0  0
 12 13  1  0  0  0  0
 12 14  2  0  0  0  0
 14 15  1  0  0  0  0
 15 19  1  0  0  0  0
 15 16  2  0  0  0  0
 16 17  1  0  0  0  0
 17 18  2  0  0  0  0
 18 19  1  0  0  0  0
 18 20  1  0  0  0  0
 20 30  1  0  0  0  0
 20 31  1  0  0  0  0
 20 32  1  0  0  0  0
M  CHG  1  13  -1
M  END
$$$$
ZINC66254329
 OpenBabel01252620473D

 43 46  0  0  0  0  0  0  0  0999 V2000
   -0.0184    1.5028    0.0103 C   0  0  0  0  0  0  0  0  0  0  0  0
    0.0021   -0.0041    0.0020 C   0  0  0  0  0  0  0  0  0  0  0  0
    0.0080   -0.7588   -1.0626 N   0  0  0  0  0  0  0  0  0  0  0  0
    0.0275   -2.0475   -0.6911 C   0  0  0  0  0  0  0  0  0  0  0  0
    0.0339   -2.0930    0.6548 C   0  0  0  0  0  0  0  0  0  0  0  0
    0.0232   -0.7970    1.0950 N   0  0  0  0  0  0  0  0  0  0  0  0
    0.0304   -0.3529    2.4910 C   0  0  0  0  0  0  0  0  0  0  0  0
    0.0421   -3.4372   -1.7742 S   0  0  0  0  0  0  0  0  0  0  0  0
    1.3976   -3.6495   -2.1442 O   0  0  0  0  0  0  0  0  0  0  0  0
   -0.7448   -4.4443   -1.1533 O   0  0  0  0  0  0  0  0  0  0  0  0
   -0.7605   -2.9921   -3.1527 N   0  0  0  0  0  2  0  0  0  0  0  0
   -0.9065   -3.9004   -4.1970 C   0  0  0  0  0  0  0  0  0  0  0  0
   -0.4480   -5.1801   -4.2173 C   0  0  0  0  0  0  0  0  0  0  0  0
   -0.8075   -5.7463   -5.4548 C   0  0  0  0  0  0  0  0  0  0  0  0
   -1.4579   -4.8371   -6.1497 N   0  0  0  0  0  0  0  0  0  0  0  0
   -1.5395   -3.6695   -5.3804 N   0  0  0  0  0  0  0  0  0  0  0  0
   -2.1604   -2.4734   -5.7625 C   0  0  0  0  0  0  0  0  0  0  0  0
   -2.8083   -1.6922   -4.8147 C   0  0  0  0  0  0  0  0  0  0  0  0
   -3.4196   -0.5134   -5.1945 C   0  0  0  0  0  0  0  0  0  0  0  0
   -3.3873   -0.1111   -6.5172 C   0  0  0  0  0  0  0  0  0  0  0  0
   -2.7434   -0.8871   -7.4635 C   0  0  0  0  0  0  0  0  0  0  0  0
   -2.1245   -2.0635   -7.0888 C   0  0  0  0  0  0  0  0  0  0  0  0
   -0.5052   -7.1301   -5.8996 C   0  0  0  0  0  0  0  0  0  0  0  0
   -0.7709   -7.7136   -7.2190 C   0  0  0  0  0  0  0  0  0  0  0  0
   -0.3314   -8.9821   -7.1591 C   0  0  0  0  0  0  0  0  0  0  0  0
    0.1695   -9.2131   -5.9362 O   0  0  0  0  0  0  0  0  0  0  0  0
    0.0795   -8.1153   -5.1710 C   0  0  0  0  0  0  0  0  0  0  0  0
    1.0042    1.8801    0.0026 H   0  0  0  0  0  0  0  0  0  0  0  0
   -0.5455    1.8639   -0.8728 H   0  0  0  0  0  0  0  0  0  0  0  0
   -0.5286    1.8543    0.9071 H   0  0  0  0  0  0  0  0  0  0  0  0
    0.0489   -2.9814    1.2688 H   0  0  0  0  0  0  0  0  0  0  0  0
   -0.9954   -0.2568    2.8470 H   0  0  0  0  0  0  0  0  0  0  0  0
    0.5600   -1.0838    3.1021 H   0  0  0  0  0  0  0  0  0  0  0  0
    0.5318    0.6122    2.5628 H   0  0  0  0  0  0  0  0  0  0  0  0
    0.0954   -5.6741   -3.4254 H   0  0  0  0  0  0  0  0  0  0  0  0
   -2.8344   -2.0062   -3.7817 H   0  0  0  0  0  0  0  0  0  0  0  0
   -3.9236    0.0946   -4.4579 H   0  0  0  0  0  0  0  0  0  0  0  0
   -3.8664    0.8109   -6.8118 H   0  0  0  0  0  0  0  0  0  0  0  0
   -2.7202   -0.5703   -8.4957 H   0  0  0  0  0  0  0  0  0  0  0  0
   -1.6173   -2.6666   -7.8274 H   0  0  0  0  0  0  0  0  0  0  0  0
   -1.2274   -7.2235   -8.0662 H   0  0  0  0  0  0  0  0  0  0  0  0
   -0.3748   -9.6997   -7.9651 H   0  0  0  0  0  0  0  0  0  0  0  0
    0.4132   -8.0302   -4.1474 H   0  0  0  0  0  0  0  0  0  0  0  0
  1  2  1  0  0  0  0
  1 28  1  0  0  0  0
  1 29  1  0  0  0  0
  1 30  1  0  0  0  0
  2  6  1  0  0  0  0
  2  3  2  0  0  0  0
  3  4  1  0  0  0  0
  4  5  2  0  0  0  0
  4  8  1  0  0  0  0
  5  6  1  0  0  0  0
  5 31  1  0  0  0  0
  6  7  1  0  0  0  0
  7 32  1  0  0  0  0
  7 33  1  0  0  0  0
  7 34  1  0  0  0  0
  8  9  2  0  0  0  0
  8 10  2  0  0  0  0
  8 11  1  0  0  0  0
 11 12  1  0  0  0  0
 12 16  1  0  0  0  0
 12 13  2  0  0  0  0
 13 14  1  0  0  0  0
 13 35  1  0  0  0  0
 14 15  2  0  0  0  0
 14 23  1  0  0  0  0
 15 16  1  0  0  0  0
 16 17  1  0  0  0  0
 17 22  2  0  0  0  0
 17 18  1  0  0  0  0
 18 19  2  0  0  0  0
 18 36  1  0  0  0  0
 19 20  1  0  0  0  0
 19 37  1  0  0  0  0
 20 21  2  0  0  0  0
 20 38  1  0  0  0  0
 21 22  1  0  0  0  0
 21 39  1  0  0  0  0
 22 40  1  0  0  0  0
 23 27  2  0  0  0  0
 23 24  1  0  0  0  0
 24 25  2  0  0  0  0
 24 41  1  0  0  0  0
 25 26  1  0  0  0  0
 25 42  1  0  0  0  0
 26 27  1  0  0  0  0
 27 43  1  0  0  0  0
M  END
$$$$
ZINC27057062
 OpenBabel01252620473D

 49 50  0  0  0  0  0  0  0  0999 V2000
   -8.4375    1.9743    0.4710 C   0  0  0  0  0  0  0  0  0  0  0  0
   -7.2422    1.0224    0.5497 C   0  0  0  0  0  0  0  0  0  0  0  0
   -5.9435    1.8258    0.4559 C   0  0  0  0  0  0  0  0  0  0  0  0
   -5.8770    2.8247    1.6129 C   0  0  0  0  0  0  0  0  0  0  0  0
   -5.9139    2.0683    2.9424 C   0  0  0  0  0  0  0  0  0  0  0  0
   -4.7482    0.8740    0.5345 C   0  0  0  0  0  0  0  0  0  0  0  0
   -3.4690    1.6653    0.4421 C   0  0  0  0  0  0  0  0  0  0  0  0
   -3.5094    2.8718    0.3249 O   0  0  0  0  0  0  0  0  0  0  0  0
   -2.2801    1.0322    0.4897 N   0  0  0  0  0  0  0  0  0  0  0  0
   -1.0954    1.7541    0.3073 C   0  0  0  0  0  0  0  0  0  0  0  0
   -0.9890    3.0509    0.7948 C   0  0  0  0  0  0  0  0  0  0  0  0
    0.1782    3.7663    0.6102 C   0  0  0  0  0  0  0  0  0  0  0  0
    1.2453    3.1934   -0.0548 C   0  0  0  0  0  0  0  0  0  0  0  0
    1.1473    1.8954   -0.5401 C   0  0  0  0  0  0  0  0  0  0  0  0
   -0.0241    1.1740   -0.3562 C   0  0  0  0  0  0  0  0  0  0  0  0
    2.2275    1.3164   -1.2134 N   0  0  0  0  0  0  0  0  0  0  0  0
    2.0068    0.4458   -2.2183 C   0  0  0  0  0  0  0  0  0  0  0  0
    0.8729    0.2342   -2.6010 O   0  0  0  0  0  0  0  0  0  0  0  0
    3.1462   -0.2530   -2.8564 C   0  0  0  0  0  0  0  0  0  0  0  0
    4.4591   -0.0197   -2.4354 C   0  0  0  0  0  0  0  0  0  0  0  0
    5.4915   -0.6964   -3.0556 C   0  0  0  0  0  0  0  0  0  0  0  0
    5.2525   -1.5437   -4.0367 N   0  0  0  0  0  0  0  0  0  0  0  0
    4.0310   -1.7891   -4.4671 C   0  0  0  0  0  0  0  0  0  0  0  0
    2.9394   -1.1600   -3.9004 C   0  0  0  0  0  0  0  0  0  0  0  0
   -5.9071    2.5708   -0.8536 C   0  0  0  0  0  0  0  0  0  0  0  0
   -5.8354    3.7769   -0.8607 O   0  0  0  0  0  0  0  0  0  0  0  0
   -5.9544    1.8945   -2.0121 O   0  0  0  0  0  1  0  0  0  0  0  0
   -9.3712    1.3967    0.5384 H   0  0  0  0  0  0  0  0  0  0  0  0
   -8.4109    2.5180   -0.4849 H   0  0  0  0  0  0  0  0  0  0  0  0
   -8.3897    2.6925    1.3028 H   0  0  0  0  0  0  0  0  0  0  0  0
   -7.2688    0.4787    1.5056 H   0  0  0  0  0  0  0  0  0  0  0  0
   -7.2900    0.3042   -0.2821 H   0  0  0  0  0  0  0  0  0  0  0  0
   -4.9433    3.4023    1.5454 H   0  0  0  0  0  0  0  0  0  0  0  0
   -6.7364    3.5090    1.5564 H   0  0  0  0  0  0  0  0  0  0  0  0
   -5.8661    2.7864    3.7743 H   0  0  0  0  0  0  0  0  0  0  0  0
   -5.0545    1.3840    2.9989 H   0  0  0  0  0  0  0  0  0  0  0  0
   -6.8476    1.4907    3.0098 H   0  0  0  0  0  0  0  0  0  0  0  0
   -4.7747    0.3302    1.4903 H   0  0  0  0  0  0  0  0  0  0  0  0
   -4.7960    0.1558   -0.2973 H   0  0  0  0  0  0  0  0  0  0  0  0
   -2.2412   -0.0519    0.6719 H   0  0  0  0  0  0  0  0  0  0  0  0
   -1.8213    3.5015    1.3151 H   0  0  0  0  0  0  0  0  0  0  0  0
    0.2570    4.7754    0.9869 H   0  0  0  0  0  0  0  0  0  0  0  0
    2.1564    3.7555   -0.1978 H   0  0  0  0  0  0  0  0  0  0  0  0
   -0.1030    0.1649   -0.7328 H   0  0  0  0  0  0  0  0  0  0  0  0
    3.2573    1.5715   -0.9229 H   0  0  0  0  0  0  0  0  0  0  0  0
    4.6627    0.6765   -1.6353 H   0  0  0  0  0  0  0  0  0  0  0  0
    6.5086   -0.5258   -2.7350 H   0  0  0  0  0  0  0  0  0  0  0  0
    3.8815   -2.4912   -5.2739 H   0  0  0  0  0  0  0  0  0  0  0  0
    1.9415   -1.3653   -4.2585 H   0  0  0  0  0  0  0  0  0  0  0  0
  1  2  1  0  0  0  0
  1 28  1  0  0  0  0
  1 29  1  0  0  0  0
  1 30  1  0  0  0  0
  2  3  1  0  0  0  0
  2 31  1  0  0  0  0
  2 32  1  0  0  0  0
  3  4  1  0  0  0  0
  3  6  1  0  0  0  0
  3 25  1  0  0  0  0
  4  5  1  0  0  0  0
  4 33  1  0  0  0  0
  4 34  1  0  0  0  0
  5 35  1  0  0  0  0
  5 36  1  0  0  0  0
  5 37  1  0  0  0  0
  6  7  1  0  0  0  0
  6 38  1  0  0  0  0
  6 39  1  0  0  0  0
  7  8  2  0  0  0  0
  7  9  1  0  0  0  0
  9 10  1  0  0  0  0
  9 40  1  0  0  0  0
 10 15  2  0  0  0  0
 10 11  1  0  0  0  0
 11 12  2  0  0  0  0
 11 41  1  0  0  0  0
 12 13  1  0  0  0  0
 12 42  1  0  0  0  0
 13 14  2  0  0  0  0
 13 43  1  0  0  0  0
 14 15  1  0  0  0  0
 14 16  1  0  0  0  0
 15 44  1  0  0  0  0
 16 17  1  0  0  0  0
 16 45  1  0  0  0  0
 17 18  2  0  0  0  0
 17 19  1  0  0  0  0
 19 24  2  0  0  0  0
 19 20  1  0  0  0  0
 20 21  2  0  0  0  0
 20 46  1  0  0  0  0
 21 22  1  0  0  0  0
 21 47  1  0  0  0  0
 22 23  2  0  0  0  0
 23 24  1  0  0  0  0
 23 48  1  0  0  0  0
 24 49  1  0  0  0  0
 25 26  2  0  0  0  0
 25 27  1  0  0  0  0
M  END
$$$$
ZINC49487712
 OpenBabel01252620473D

 61 65  0  0  1  0  0  0  0  0999 V2000
   -3.1931   -0.6465    1.4472 C   0  0  0  0  0  0  0  0  0  0  0  0
   -4.2241    0.0640    2.0321 C   0  0  0  0  0  0  0  0  0  0  0  0
   -4.4528    1.3795    1.6656 C   0  0  0  0  0  0  0  0  0  0  0  0
   -3.6480    1.9815    0.7132 C   0  0  0  0  0  0  0  0  0  0  0  0
   -2.6176    1.2691    0.1297 C   0  0  0  0  0  0  0  0  0  0  0  0
   -2.3902   -0.0443    0.4965 C   0  0  0  0  0  0  0  0  0  0  0  0
   -1.2662   -0.8201   -0.1406 C   0  0  1  0  0  0  0  0  0  0  0  0
   -1.0089   -1.6710    0.4902 H   0  0  0  0  0  0  0  0  0  0  0  0
   -1.7083   -1.3209   -1.5171 C   0  0  0  0  0  0  0  0  0  0  0  0
   -2.8298   -2.2505   -1.3615 N   0  0  0  0  0  0  0  0  0  0  0  0
   -3.3230   -2.8972   -2.4362 C   0  0  0  0  0  0  0  0  0  0  0  0
   -2.8382   -2.7094   -3.5328 O   0  0  0  0  0  0  0  0  0  0  0  0
   -4.4662   -3.8448   -2.2777 C   0  0  0  0  0  0  0  0  0  0  0  0
   -4.9512   -4.0327   -1.1808 O   0  0  0  0  0  0  0  0  0  0  0  0
   -4.9595   -4.4915   -3.3523 N   0  0  0  0  0  0  0  0  0  0  0  0
   -5.9635   -5.4512   -3.1908 C   0  0  0  0  0  0  0  0  0  0  0  0
   -5.9566   -6.5758   -4.0124 C   0  0  0  0  0  0  0  0  0  0  0  0
   -6.9183   -7.5483   -3.8772 C   0  0  0  0  0  0  0  0  0  0  0  0
   -7.8757   -7.3545   -2.8782 C   0  0  0  0  0  0  0  0  0  0  0  0
   -7.9061   -6.2268   -2.0735 C   0  0  0  0  0  0  0  0  0  0  0  0
   -6.9361   -5.2511   -2.2061 C   0  0  0  0  0  0  0  0  0  0  0  0
   -9.1017   -6.3398   -1.1763 C   0  0  0  0  0  0  0  0  0  0  0  0
   -9.7531   -7.6911   -1.5561 C   0  0  0  0  0  0  0  0  0  0  0  0
   -8.8885   -8.2649   -2.5821 N   0  0  0  0  0  0  0  0  0  0  0  0
   -8.9170   -9.4729   -3.1865 C   0  0  0  0  0  0  0  0  0  0  0  0
   -9.8998  -10.1804   -3.1163 O   0  0  0  0  0  0  0  0  0  0  0  0
   -7.6945   -9.9198   -3.9520 C   0  0  0  0  0  0  0  0  0  0  0  0
   -7.0352   -8.7793   -4.7243 C   0  0  0  0  0  0  0  0  0  0  0  0
   -0.0930    0.0511   -0.2900 N   0  0  0  0  0  0  0  0  0  0  0  0
    0.9617   -0.6143   -1.0686 C   0  0  0  0  0  0  0  0  0  0  0  0
    2.1384    0.3481   -1.2506 C   0  0  0  0  0  0  0  0  0  0  0  0
    2.6012    0.7755    0.0333 O   0  0  0  0  0  0  0  0  0  0  0  0
    1.5997    1.4283    0.8183 C   0  0  0  0  0  0  0  0  0  0  0  0
    0.4175    0.4769    1.0213 C   0  0  0  0  0  0  0  0  0  0  0  0
   -5.4606    2.0749    2.2363 F   0  0  0  0  0  0  0  0  0  0  0  0
   -3.0118   -1.6712    1.7362 H   0  0  0  0  0  0  0  0  0  0  0  0
   -4.8514   -0.4068    2.7746 H   0  0  0  0  0  0  0  0  0  0  0  0
   -3.8257    3.0075    0.4263 H   0  0  0  0  0  0  0  0  0  0  0  0
   -1.9899    1.7384   -0.6134 H   0  0  0  0  0  0  0  0  0  0  0  0
   -2.0202   -0.4743   -2.1287 H   0  0  0  0  0  0  0  0  0  0  0  0
   -0.8768   -1.8325   -2.0018 H   0  0  0  0  0  0  0  0  0  0  0  0
   -3.2173   -2.4007   -0.4851 H   0  0  0  0  0  0  0  0  0  0  0  0
   -4.6180   -4.2912   -4.2379 H   0  0  0  0  0  0  0  0  0  0  0  0
   -5.1881   -6.6846   -4.7634 H   0  0  0  0  0  0  0  0  0  0  0  0
   -6.9317   -4.3714   -1.5796 H   0  0  0  0  0  0  0  0  0  0  0  0
   -8.7926   -6.3479   -0.1311 H   0  0  0  0  0  0  0  0  0  0  0  0
   -9.7945   -5.5190   -1.3618 H   0  0  0  0  0  0  0  0  0  0  0  0
   -9.7942   -8.3476   -0.6870 H   0  0  0  0  0  0  0  0  0  0  0  0
  -10.7545   -7.5284   -1.9545 H   0  0  0  0  0  0  0  0  0  0  0  0
   -6.9711  -10.3339   -3.2497 H   0  0  0  0  0  0  0  0  0  0  0  0
   -7.9853  -10.6997   -4.6558 H   0  0  0  0  0  0  0  0  0  0  0  0
   -7.6347   -8.5510   -5.6056 H   0  0  0  0  0  0  0  0  0  0  0  0
   -6.0399   -9.0908   -5.0412 H   0  0  0  0  0  0  0  0  0  0  0  0
    1.2986   -1.5050   -0.5382 H   0  0  0  0  0  0  0  0  0  0  0  0
    0.5691   -0.8981   -2.0450 H   0  0  0  0  0  0  0  0  0  0  0  0
    2.9458   -0.1599   -1.7780 H   0  0  0  0  0  0  0  0  0  0  0  0
    1.8143    1.2142   -1.8276 H   0  0  0  0  0  0  0  0  0  0  0  0
    2.0175    1.7016    1.7872 H   0  0  0  0  0  0  0  0  0  0  0  0
    1.2599    2.3259    0.3015 H   0  0  0  0  0  0  0  0  0  0  0  0
   -0.3722    0.9896    1.5703 H   0  0  0  0  0  0  0  0  0  0  0  0
    0.7458   -0.3963    1.5851 H   0  0  0  0  0  0  0  0  0  0  0  0
  1  6  2  0  0  0  0
  1  2  1  0  0  0  0
  1 36  1  0  0  0  0
  2  3  2  0  0  0  0
  2 37  1  0  0  0  0
  3  4  1  0  0  0  0
  3 35  1  0  0  0  0
  4  5  2  0  0  0  0
  4 38  1  0  0  0  0
  5  6  1  0  0  0  0
  5 39  1  0  0  0  0
  6  7  1  0  0  0  0
  7  8  1  1  0  0  0
  7  9  1  0  0  0  0
  7 29  1  0  0  0  0
  9 10  1  0  0  0  0
  9 40  1  0  0  0  0
  9 41  1  0  0  0  0
 10 11  1  0  0  0  0
 10 42  1  0  0  0  0
 11 12  2  0  0  0  0
 11 13  1  0  0  0  0
 13 14  2  0  0  0  0
 13 15  1  0  0  0  0
 15 16  1  0  0  0  0
 15 43  1  0  0  0  0
 16 21  2  0  0  0  0
 16 17  1  0  0  0  0
 17 18  2  0  0  0  0
 17 44  1  0  0  0  0
 18 28  1  0  0  0  0
 18 19  1  0  0  0  0
 19 24  1  0  0  0  0
 19 20  2  0  0  0  0
 20 21  1  0  0  0  0
 20 22  1  0  0  0  0
 21 45  1  0  0  0  0
 22 23  1  0  0  0  0
 22 46  1  0  0  0  0
 22 47  1  0  0  0  0
 23 24  1  0  0  0  0
 23 48  1  0  0  0  0
 23 49  1  0  0  0  0
 24 25  1  0  0  0  0
 25 26  2  0  0  0  0
 25 27  1  0  0  0  0
 27 28  1  0  0  0  0
 27 50  1  0  0  0  0
 27 51  1  0  0  0  0
 28 52  1  0  0  0  0
 28 53  1  0  0  0  0
 29 34  1  0  0  0  0
 29 30  1  0  0  0  0
 30 31  1  0  0  0  0
 30 54  1  0  0  0  0
 30 55  1  0  0  0  0
 31 32  1  0  0  0  0
 31 56  1  0  0  0  0
 31 57  1  0  0  0  0
 32 33  1  0  0  0  0
 33 34  1  0  0  0  0
 33 58  1  0  0  0  0
 33 59  1  0  0  0  0
 34 60  1  0  0  0  0
 34 61  1  0  0  0  0
M  END
$$$$
ZINC08974875
 OpenBabel01252620473D

 49 50  0  0  0  0  0  0  0  0999 V2000
    3.9643  -15.2334    1.6905 C   0  0  0  0  0  0  0  0  0  0  0  0
    3.0320  -14.4699    0.8574 N   0  0  0  0  0  0  0  0  0  0  0  0
    1.8748  -15.1357    0.2542 C   0  0  0  0  0  0  0  0  0  0  0  0
    3.2455  -13.1137    0.6391 C   0  0  0  0  0  0  0  0  0  0  0  0
    4.4062  -12.5080    1.1150 C   0  0  0  0  0  0  0  0  0  0  0  0
    4.6200  -11.1760    0.9034 C   0  0  0  0  0  0  0  0  0  0  0  0
    3.6694  -10.4180    0.2058 C   0  0  0  0  0  0  0  0  0  0  0  0
    2.5007  -11.0308   -0.2669 C   0  0  0  0  0  0  0  0  0  0  0  0
    2.2977  -12.3644   -0.0543 C   0  0  0  0  0  0  0  0  0  0  0  0
    3.8941   -8.9869   -0.0236 C   0  0  0  0  0  0  0  0  0  0  0  0
    2.9725   -8.2552   -0.6992 C   0  0  0  0  0  0  0  0  0  0  0  0
    3.1356   -6.8625   -0.8273 C   0  0  0  0  0  0  0  0  0  0  0  0
    2.1294   -6.0909   -1.4258 C   0  0  0  0  0  0  0  0  0  0  0  0
    0.9551   -6.7151   -2.0498 C   0  0  0  0  0  0  0  0  0  0  0  0
    0.8243   -7.9253   -2.0632 O   0  0  0  0  0  0  0  0  0  0  0  0
    0.0253   -5.9125   -2.6072 N   0  0  0  0  0  0  0  0  0  0  0  0
    0.1571   -4.5783   -2.5993 C   0  0  0  0  0  0  0  0  0  0  0  0
   -0.7148   -3.9095   -3.1187 O   0  0  0  0  0  0  0  0  0  0  0  0
    1.2018   -3.9444   -2.0479 N   0  0  0  0  0  0  0  0  0  0  0  0
    2.2076   -4.6244   -1.4601 C   0  0  0  0  0  0  0  0  0  0  0  0
    3.1537   -4.0378   -0.9675 O   0  5  0  0  0  0  0  0  0  0  0  0
    1.2553   -2.4810   -2.0901 C   0  0  0  0  0  0  0  0  0  0  0  0
    0.5721   -1.9096   -0.8460 C   0  0  0  0  0  0  0  0  0  0  0  0
    0.6279   -0.3813   -0.8900 C   0  0  0  0  0  0  0  0  0  0  0  0
   -0.0102    0.1523    0.2720 O   0  0  0  0  0  0  0  0  0  0  0  0
   -0.0132    1.5802    0.3294 C   0  0  0  0  0  0  0  0  0  0  0  0
    4.2609   -6.2702   -0.3740 O   0  0  0  0  0  0  0  0  0  0  0  0
    4.7625  -14.5682    2.0516 H   0  0  0  0  0  0  0  0  0  0  0  0
    4.4058  -16.0467    1.0958 H   0  0  0  0  0  0  0  0  0  0  0  0
    3.4246  -15.6585    2.5496 H   0  0  0  0  0  0  0  0  0  0  0  0
    1.2960  -14.4061   -0.3312 H   0  0  0  0  0  0  0  0  0  0  0  0
    1.2392  -15.5563    1.0474 H   0  0  0  0  0  0  0  0  0  0  0  0
    2.2203  -15.9445   -0.4064 H   0  0  0  0  0  0  0  0  0  0  0  0
    5.1380  -13.0929    1.6524 H   0  0  0  0  0  0  0  0  0  0  0  0
    5.5199  -10.7072    1.2734 H   0  0  0  0  0  0  0  0  0  0  0  0
    1.7634  -10.4498   -0.8011 H   0  0  0  0  0  0  0  0  0  0  0  0
    1.3991  -12.8382   -0.4211 H   0  0  0  0  0  0  0  0  0  0  0  0
    4.8097   -8.5068    0.3520 H   0  0  0  0  0  0  0  0  0  0  0  0
    2.0980   -8.7500   -1.1468 H   0  0  0  0  0  0  0  0  0  0  0  0
    2.3050   -2.1531   -2.1153 H   0  0  0  0  0  0  0  0  0  0  0  0
    0.7370   -2.1209   -2.9911 H   0  0  0  0  0  0  0  0  0  0  0  0
   -0.4776   -2.2376   -0.8209 H   0  0  0  0  0  0  0  0  0  0  0  0
    1.0904   -2.2696    0.0550 H   0  0  0  0  0  0  0  0  0  0  0  0
    1.6776   -0.0533   -0.9152 H   0  0  0  0  0  0  0  0  0  0  0  0
    0.1096   -0.0212   -1.7909 H   0  0  0  0  0  0  0  0  0  0  0  0
   -0.5199    1.9091    1.2487 H   0  0  0  0  0  0  0  0  0  0  0  0
   -0.5450    1.9812   -0.5460 H   0  0  0  0  0  0  0  0  0  0  0  0
    1.0230    1.9493    0.3297 H   0  0  0  0  0  0  0  0  0  0  0  0
   -0.8654   -6.3498   -3.0819 H   0  0  0  0  0  0  0  0  0  0  0  0
  1  2  1  0  0  0  0
  1 28  1  0  0  0  0
  1 29  1  0  0  0  0
  1 30  1  0  0  0  0
  2  3  1  0  0  0  0
  2  4  1  0  0  0  0
  3 31  1  0  0  0  0
  3 32  1  0  0  0  0
  3 33  1  0  0  0  0
  4  9  2  0  0  0  0
  4  5  1  0  0  0  0
  5  6  2  0  0  0  0
  5 34  1  0  0  0  0
  6  7  1  0  0  0  0
  6 35  1  0  0  0  0
  7  8  2  0  0  0  0
  7 10  1  0  0  0  0
  8  9  1  0  0  0  0
  8 36  1  0  0  0  0
  9 37  1  0  0  0  0
 10 11  2  0  0  0  0
 10 38  1  0  0  0  0
 11 12  1  0  0  0  0
 11 39  1  0  0  0  0
 12 13  1  0  0  0  0
 12 27  2  0  0  0  0
 13 20  2  0  0  0  0
 13 14  1  0  0  0  0
 14 15  2  0  0  0  0
 14 16  1  0  0  0  0
 16 17  1  0  0  0  0
 16 49  1  0  0  0  0
 17 18  2  0  0  0  0
 17 19  1  0  0  0  0
 19 20  1  0  0  0  0
 19 22  1  0  0  0  0
 20 21  1  0  0  0  0
 22 23  1  0  0  0  0
 22 40  1  0  0  0  0
 22 41  1  0  0  0  0
 23 24  1  0  0  0  0
 23 42  1  0  0  0  0
 23 43  1  0  0  0  0
 24 25  1  0  0  0  0
 24 44  1  0  0  0  0
 24 45  1  0  0  0  0
 25 26  1  0  0  0  0
 26 46  1  0  0  0  0
 26 47  1  0  0  0  0
 26 48  1  0  0  0  0
M  CHG  1  21  -1
M  END
$$$$
ZINC33520653
 OpenBabel01252620473D

 41 42  0  0  0  0  0  0  0  0999 V2000
   -2.5582   -5.5061   -1.5152 C   0  0  0  0  0  0  0  0  0  0  0  0
   -1.7097   -4.3624   -1.0222 C   0  0  0  0  0  0  0  0  0  0  0  0
   -1.9416   -3.0448   -1.1357 C   0  0  0  0  0  0  0  0  0  0  0  0
   -0.9828   -2.1068   -0.5823 C   0  0  0  0  0  0  0  0  0  0  0  0
    0.1334   -2.6944    0.0397 C   0  0  0  0  0  0  0  0  0  0  0  0
   -0.1578   -4.4346   -0.1475 S   0  0  0  0  0  0  0  0  0  0  0  0
    1.0966   -1.9632    0.5928 N   0  0  0  0  0  0  0  0  0  0  0  0
    1.0446   -0.6582    0.5756 C   0  0  0  0  0  0  0  0  0  0  0  0
    0.0021   -0.0041    0.0020 N   0  0  0  0  0  0  0  0  0  0  0  0
   -1.0107   -0.6740   -0.5787 C   0  0  0  0  0  0  0  0  0  0  0  0
   -1.9371   -0.0715   -1.0930 O   0  0  0  0  0  0  0  0  0  0  0  0
   -0.0178    1.4608    0.0101 C   0  0  0  0  0  0  0  0  0  0  0  0
   -0.7339    1.9542    1.2689 C   0  0  0  0  0  0  0  0  0  0  0  0
   -0.7547    3.4840    1.2773 C   0  0  0  0  0  0  0  0  0  0  0  0
   -1.4601    3.9700    2.5172 C   0  0  0  0  0  0  0  0  0  0  0  0
   -1.9026    3.1714    3.3155 O   0  0  0  0  0  0  0  0  0  0  0  0
   -1.5991    5.2921    2.7389 N   0  0  0  0  0  0  0  0  0  0  0  0
   -2.2848    5.7646    3.9442 C   0  0  0  0  0  0  0  0  0  0  0  0
   -2.3056    7.2944    3.9526 C   0  0  0  0  0  0  0  0  0  0  0  0
   -3.0217    7.7879    5.2114 C   0  0  0  0  0  0  0  0  0  0  0  0
   -3.0421    9.2947    5.2197 C   0  0  0  0  0  0  0  0  0  0  0  0
   -2.5359    9.9107    4.3119 O   0  0  0  0  0  0  0  0  0  0  0  0
   -3.6228    9.9524    6.2356 O   0  0  0  0  0  1  0  0  0  0  0  0
   -3.4538   -5.1091   -2.0155 H   0  0  0  0  0  0  0  0  0  0  0  0
   -2.8614   -6.1317   -0.6628 H   0  0  0  0  0  0  0  0  0  0  0  0
   -1.9787   -6.1122   -2.2271 H   0  0  0  0  0  0  0  0  0  0  0  0
   -2.8314   -2.6874   -1.6326 H   0  0  0  0  0  0  0  0  0  0  0  0
    1.8430   -0.0895    1.0289 H   0  0  0  0  0  0  0  0  0  0  0  0
    1.0142    1.8415    0.0023 H   0  0  0  0  0  0  0  0  0  0  0  0
   -0.5498    1.8252   -0.8810 H   0  0  0  0  0  0  0  0  0  0  0  0
   -1.7659    1.5734    1.2767 H   0  0  0  0  0  0  0  0  0  0  0  0
   -0.2019    1.5898    2.1601 H   0  0  0  0  0  0  0  0  0  0  0  0
    0.2773    3.8648    1.2695 H   0  0  0  0  0  0  0  0  0  0  0  0
   -1.2867    3.8484    0.3861 H   0  0  0  0  0  0  0  0  0  0  0  0
   -1.1977    6.0164    2.0148 H   0  0  0  0  0  0  0  0  0  0  0  0
   -3.3168    5.3838    3.9520 H   0  0  0  0  0  0  0  0  0  0  0  0
   -1.7528    5.4002    4.8354 H   0  0  0  0  0  0  0  0  0  0  0  0
   -1.2736    7.6752    3.9448 H   0  0  0  0  0  0  0  0  0  0  0  0
   -2.8376    7.6588    3.0614 H   0  0  0  0  0  0  0  0  0  0  0  0
   -4.0537    7.4072    5.2192 H   0  0  0  0  0  0  0  0  0  0  0  0
   -2.4897    7.4235    6.1026 H   0  0  0  0  0  0  0  0  0  0  0  0
  1  2  1  0  0  0  0
  1 24  1  0  0  0  0
  1 25  1  0  0  0  0
  1 26  1  0  0  0  0
  2  6  1  0  0  0  0
  2  3  2  0  0  0  0
  3  4  1  0  0  0  0
  3 27  1  0  0  0  0
  4 10  1  0  0  0  0
  4  5  2  0  0  0  0
  5  6  1  0  0  0  0
  5  7  1  0  0  0  0
  7  8  2  0  0  0  0
  8  9  1  0  0  0  0
  8 28  1  0  0  0  0
  9 10  1  0  0  0  0
  9 12  1  0  0  0  0
 10 11  2  0  0  0  0
 12 13  1  0  0  0  0
 12 29  1  0  0  0  0
 12 30  1  0  0  0  0
 13 14  1  0  0  0  0
 13 31  1  0  0  0  0
 13 32  1  0  0  0  0
 14 15  1  0  0  0  0
 14 33  1  0  0  0  0
 14 34  1  0  0  0  0
 15 16  2  0  0  0  0
 15 17  1  0  0  0  0
 17 18  1  0  0  0  0
 17 35  1  0  0  0  0
 18 19  1  0  0  0  0
 18 36  1  0  0  0  0
 18 37  1  0  0  0  0
 19 20  1  0  0  0  0
 19 38  1  0  0  0  0
 19 39  1  0  0  0  0
 20 21  1  0  0  0  0
 20 40  1  0  0  0  0
 20 41  1  0  0  0  0
 21 22  2  0  0  0  0
 21 23  1  0  0  0  0
M  END
$$$$
ZINC13690123
 OpenBabel01252620473D

 58 61  0  0  1  0  0  0  0  0999 V2000
   -3.7213   -5.3020    2.7249 C   0  0  0  0  0  0  0  0  0  0  0  0
   -2.4286   -5.3546    3.4978 C   0  0  0  0  0  0  0  0  0  0  0  0
   -1.2013   -5.4314    2.8276 C   0  0  0  0  0  0  0  0  0  0  0  0
   -0.0316   -5.4717    3.5959 C   0  0  0  0  0  0  0  0  0  0  0  0
   -0.1311   -5.4410    4.9132 N   0  0  0  0  0  0  0  0  0  0  0  0
   -1.3083   -5.3736    5.5036 C   0  0  0  0  0  0  0  0  0  0  0  0
   -2.4348   -5.3332    4.8187 N   0  0  0  0  0  0  0  0  0  0  0  0
   -1.3684   -5.3410    7.0090 C   0  0  0  0  0  0  0  0  0  0  0  0
   -1.1423   -5.4628    1.3505 C   0  0  0  0  0  0  0  0  0  0  0  0
   -0.8918   -6.5043    0.7738 O   0  0  0  0  0  0  0  0  0  0  0  0
   -1.3856   -4.2390    0.5811 C   0  0  0  0  0  0  0  0  0  0  0  0
   -1.4731   -4.1362   -0.7658 C   0  0  0  0  0  0  0  0  0  0  0  0
   -1.7311   -2.7267   -1.1293 C   0  0  0  0  0  0  0  0  0  0  0  0
   -1.8650   -2.3123   -2.2635 O   0  0  0  0  0  0  0  0  0  0  0  0
   -1.7933   -1.9701   -0.0185 N   0  0  0  0  0  0  0  0  0  0  0  0
   -1.5869   -2.8492    1.1384 C   0  0  2  0  0  0  0  0  0  0  0  0
   -2.4542   -2.7935    1.8127 H   0  0  0  0  0  0  0  0  0  0  0  0
   -0.3644   -2.4167    1.9062 C   0  0  0  0  0  0  0  0  0  0  0  0
    0.8357   -2.1784    1.2540 C   0  0  0  0  0  0  0  0  0  0  0  0
    1.9348   -1.7790    1.9907 C   0  0  0  0  0  0  0  0  0  0  0  0
    1.8533   -1.6336    3.2988 N   0  0  0  0  0  0  0  0  0  0  0  0
    0.7299   -1.8559    3.9526 C   0  0  0  0  0  0  0  0  0  0  0  0
   -0.4115   -2.2533    3.2822 C   0  0  0  0  0  0  0  0  0  0  0  0
   -2.0313   -0.5253    0.0282 C   0  0  0  0  0  0  0  0  0  0  0  0
   -0.6931    0.2141   -0.0293 C   0  0  0  0  0  0  0  0  0  0  0  0
   -0.9416    1.7230    0.0195 C   0  0  0  0  0  0  0  0  0  0  0  0
    0.3433    2.4329   -0.0358 N   0  0  0  0  0  0  0  0  0  0  0  0
    1.1391    2.1769    1.1735 C   0  0  0  0  0  0  0  0  0  0  0  0
    2.4905    2.8853    1.0479 C   0  0  0  0  0  0  0  0  0  0  0  0
    2.2727    4.2816    0.8287 O   0  0  0  0  0  0  0  0  0  0  0  0
    1.5014    4.5673   -0.3413 C   0  0  0  0  0  0  0  0  0  0  0  0
    0.1399    3.8760   -0.2298 C   0  0  0  0  0  0  0  0  0  0  0  0
   -1.3489   -5.1611   -1.6399 O   0  5  0  0  0  0  0  0  0  0  0  0
   -3.5052   -5.3301    1.6467 H   0  0  0  0  0  0  0  0  0  0  0  0
   -4.2560   -4.3719    2.9676 H   0  0  0  0  0  0  0  0  0  0  0  0
   -4.3461   -6.1657    2.9963 H   0  0  0  0  0  0  0  0  0  0  0  0
    0.9362   -5.5265    3.1197 H   0  0  0  0  0  0  0  0  0  0  0  0
   -2.4181   -5.2849    7.3329 H   0  0  0  0  0  0  0  0  0  0  0  0
   -0.8230   -4.4602    7.3787 H   0  0  0  0  0  0  0  0  0  0  0  0
   -0.9079   -6.2541    7.4142 H   0  0  0  0  0  0  0  0  0  0  0  0
    0.9099   -2.3001    0.1835 H   0  0  0  0  0  0  0  0  0  0  0  0
    2.8724   -1.5881    1.4898 H   0  0  0  0  0  0  0  0  0  0  0  0
    0.7015   -1.7264    5.0245 H   0  0  0  0  0  0  0  0  0  0  0  0
   -1.3286   -2.4338    3.8232 H   0  0  0  0  0  0  0  0  0  0  0  0
   -2.6517   -0.2280   -0.8301 H   0  0  0  0  0  0  0  0  0  0  0  0
   -2.5518   -0.2694    0.9629 H   0  0  0  0  0  0  0  0  0  0  0  0
   -0.0727   -0.0833    0.8290 H   0  0  0  0  0  0  0  0  0  0  0  0
   -0.1727   -0.0418   -0.9640 H   0  0  0  0  0  0  0  0  0  0  0  0
   -1.5620    2.0203   -0.8388 H   0  0  0  0  0  0  0  0  0  0  0  0
   -1.4620    1.9789    0.9542 H   0  0  0  0  0  0  0  0  0  0  0  0
    0.6023    2.5604    2.0537 H   0  0  0  0  0  0  0  0  0  0  0  0
    1.2993    1.0943    1.2847 H   0  0  0  0  0  0  0  0  0  0  0  0
    3.0665    2.7431    1.9742 H   0  0  0  0  0  0  0  0  0  0  0  0
    3.0491    2.4619    0.2001 H   0  0  0  0  0  0  0  0  0  0  0  0
    1.3568    5.6542   -0.4288 H   0  0  0  0  0  0  0  0  0  0  0  0
    2.0320    4.1953   -1.2302 H   0  0  0  0  0  0  0  0  0  0  0  0
   -0.4357    4.0444   -1.1519 H   0  0  0  0  0  0  0  0  0  0  0  0
   -0.4130    4.2869    0.6278 H   0  0  0  0  0  0  0  0  0  0  0  0
  1  2  1  0  0  0  0
  1 34  1  0  0  0  0
  1 35  1  0  0  0  0
  1 36  1  0  0  0  0
  2  7  2  0  0  0  0
  2  3  1  0  0  0  0
  3  4  2  0  0  0  0
  3  9  1  0  0  0  0
  4  5  1  0  0  0  0
  4 37  1  0  0  0  0
  5  6  2  0  0  0  0
  6  7  1  0  0  0  0
  6  8  1  0  0  0  0
  8 38  1  0  0  0  0
  8 39  1  0  0  0  0
  8 40  1  0  0  0  0
  9 10  2  0  0  0  0
  9 11  1  0  0  0  0
 11 16  1  0  0  0  0
 11 12  2  0  0  0  0
 12 13  1  0  0  0  0
 12 33  1  0  0  0  0
 13 14  2  0  0  0  0
 13 15  1  0  0  0  0
 15 16  1  0  0  0  0
 15 24  1  0  0  0  0
 16 17  1  1  0  0  0
 16 18  1  0  0  0  0
 18 23  2  0  0  0  0
 18 19  1  0  0  0  0
 19 20  2  0  0  0  0
 19 41  1  0  0  0  0
 20 21  1  0  0  0  0
 20 42  1  0  0  0  0
 21 22  2  0  0  0  0
 22 23  1  0  0  0  0
 22 43  1  0  0  0  0
 23 44  1  0  0  0  0
 24 25  1  0  0  0  0
 24 45  1  0  0  0  0
 24 46  1  0  0  0  0
 25 26  1  0  0  0  0
 25 47  1  0  0  0  0
 25 48  1  0  0  0  0
 26 27  1  0  0  0  0
 26 49  1  0  0  0  0
 26 50  1  0  0  0  0
 27 32  1  0  0  0  0
 27 28  1  0  0  0  0
 28 29  1  0  0  0  0
 28 51  1  0  0  0  0
 28 52  1  0  0  0  0
 29 30  1  0  0  0  0
 29 53  1  0  0  0  0
 29 54  1  0  0  0  0
 30 31  1  0  0  0  0
 31 32  1  0  0  0  0
 31 55  1  0  0  0  0
 31 56  1  0  0  0  0
 32 57  1  0  0  0  0
 32 58  1  0  0  0  0
M  CHG  1  33  -1
M  END
$$$$
ZINC04537020
 OpenBabel01252620473D

 70 71  0  0  1  0  0  0  0  0999 V2000
   -0.3486    1.5349    2.0471 C   0  0  0  0  0  0  0  0  0  0  0  0
    0.9642    1.0503    1.4877 C   0  0  0  0  0  0  0  0  0  0  0  0
    1.6762    0.3270    2.1515 O   0  0  0  0  0  0  0  0  0  0  0  0
    1.3443    1.4163    0.2475 N   0  0  0  0  0  0  0  0  0  0  0  0
    2.6624    1.0267   -0.2595 C   0  0  2  0  0  0  0  0  0  0  0  0
    2.9717    0.0927    0.2097 H   0  0  0  0  0  0  0  0  0  0  0  0
    3.6805    2.1242    0.0649 C   0  0  2  0  0  0  0  0  0  0  0  0
    3.6950    2.3018    1.1403 H   0  0  0  0  0  0  0  0  0  0  0  0
    3.2765    3.4109   -0.6614 C   0  0  1  0  0  0  0  0  0  0  0  0
    4.0256    4.1818   -0.4806 H   0  0  0  0  0  0  0  0  0  0  0  0
    3.1823    3.1316   -2.1637 C   0  0  1  0  0  0  0  0  0  0  0  0
    4.1607    2.8328   -2.5399 H   0  0  0  0  0  0  0  0  0  0  0  0
    2.2418    2.0804   -2.3933 O   0  0  0  0  0  0  0  0  0  0  0  0
    2.5919    0.8394   -1.7773 C   0  0  2  0  0  0  0  0  0  0  0  0
    3.5625    0.5104   -2.1484 H   0  0  0  0  0  0  0  0  0  0  0  0
    1.6034   -0.1438   -2.0907 O   0  0  0  0  0  0  0  0  0  0  0  0
    1.6106   -0.5601   -3.4577 C   0  0  0  0  0  0  0  0  0  0  0  0
    0.5177   -1.6079   -3.6776 C   0  0  0  0  0  0  0  0  0  0  0  0
    0.5269   -2.1364   -5.4129 S   0  0  0  0  0  0  0  0  0  0  0  0
   -0.8076   -3.3615   -5.5056 C   0  0  0  0  0  0  0  0  0  0  0  0
   -0.9107   -3.8961   -6.9354 C   0  0  0  0  0  0  0  0  0  0  0  0
   -2.0194   -4.9139   -7.0125 C   0  0  0  0  0  0  0  0  0  0  0  0
   -2.6612   -5.1840   -6.0251 O   0  0  0  0  0  0  0  0  0  0  0  0
   -2.2938   -5.5205   -8.1781 O   0  0  0  0  0  0  0  0  0  0  0  0
   -3.3749   -6.4898   -8.1782 C   0  0  0  0  0  0  0  0  0  0  0  0
    2.7210    4.3967   -2.8900 C   0  0  0  0  0  0  0  0  0  0  0  0
    2.7091    4.1595   -4.2991 O   0  0  0  0  0  0  0  0  0  0  0  0
    2.0071    3.8541   -0.1775 O   0  0  0  0  0  0  0  0  0  0  0  0
    2.0901    4.8138    0.8780 C   0  0  2  0  0  0  0  0  0  0  0  0
    2.6868    4.4059    1.6940 H   0  0  0  0  0  0  0  0  0  0  0  0
    0.6827    5.1366    1.3864 C   0  0  1  0  0  0  0  0  0  0  0  0
    0.2293    4.2358    1.8002 H   0  0  0  0  0  0  0  0  0  0  0  0
    0.7753    6.2096    2.4756 C   0  0  1  0  0  0  0  0  0  0  0  0
    1.3416    5.8218    3.3224 H   0  0  0  0  0  0  0  0  0  0  0  0
    1.4837    7.4417    1.9042 C   0  0  1  0  0  0  0  0  0  0  0  0
    1.6033    8.1894    2.6882 H   0  0  0  0  0  0  0  0  0  0  0  0
    2.8603    7.0298    1.3757 C   0  0  1  0  0  0  0  0  0  0  0  0
    3.4670    6.6512    2.1983 H   0  0  0  0  0  0  0  0  0  0  0  0
    2.7043    6.0079    0.3891 O   0  0  0  0  0  0  0  0  0  0  0  0
    3.5502    8.2432    0.7492 C   0  0  0  0  0  0  0  0  0  0  0  0
    4.8788    7.8880    0.3611 O   0  0  0  0  0  0  0  0  0  0  0  0
    0.7054    7.9883    0.8377 O   0  0  0  0  0  0  0  0  0  0  0  0
   -0.5393    6.5701    2.9045 O   0  0  0  0  0  0  0  0  0  0  0  0
   -0.1166    5.6199    0.3049 O   0  0  0  0  0  0  0  0  0  0  0  0
    4.9786    1.7163   -0.3715 O   0  0  0  0  0  0  0  0  0  0  0  0
   -0.5216    1.0734    3.0194 H   0  0  0  0  0  0  0  0  0  0  0  0
   -0.3177    2.6186    2.1597 H   0  0  0  0  0  0  0  0  0  0  0  0
   -1.1559    1.2631    1.3671 H   0  0  0  0  0  0  0  0  0  0  0  0
    0.7451    1.9376   -0.3094 H   0  0  0  0  0  0  0  0  0  0  0  0
    1.4238    0.3002   -4.1005 H   0  0  0  0  0  0  0  0  0  0  0  0
    2.5817   -0.9913   -3.7010 H   0  0  0  0  0  0  0  0  0  0  0  0
    0.7045   -2.4682   -3.0348 H   0  0  0  0  0  0  0  0  0  0  0  0
   -0.4534   -1.1766   -3.4343 H   0  0  0  0  0  0  0  0  0  0  0  0
   -0.5930   -4.1849   -4.8244 H   0  0  0  0  0  0  0  0  0  0  0  0
   -1.7508   -2.8934   -5.2239 H   0  0  0  0  0  0  0  0  0  0  0  0
   -1.1254   -3.0728   -7.6166 H   0  0  0  0  0  0  0  0  0  0  0  0
    0.0325   -4.3643   -7.2172 H   0  0  0  0  0  0  0  0  0  0  0  0
   -4.3014   -6.0008   -7.8773 H   0  0  0  0  0  0  0  0  0  0  0  0
   -3.4914   -6.9040   -9.1797 H   0  0  0  0  0  0  0  0  0  0  0  0
   -3.1435   -7.2923   -7.4778 H   0  0  0  0  0  0  0  0  0  0  0  0
    1.7170    4.6608   -2.5576 H   0  0  0  0  0  0  0  0  0  0  0  0
    3.4052    5.2148   -2.6650 H   0  0  0  0  0  0  0  0  0  0  0  0
    2.4259    4.9208   -4.8237 H   0  0  0  0  0  0  0  0  0  0  0  0
    2.9899    8.5671   -0.1278 H   0  0  0  0  0  0  0  0  0  0  0  0
    3.5887    9.0547    1.4759 H   0  0  0  0  0  0  0  0  0  0  0  0
    5.3767    8.6109   -0.0446 H   0  0  0  0  0  0  0  0  0  0  0  0
   -0.1823    8.2668    1.1013 H   0  0  0  0  0  0  0  0  0  0  0  0
   -1.0486    5.8348    3.2719 H   0  0  0  0  0  0  0  0  0  0  0  0
   -0.2140    4.9915   -0.4236 H   0  0  0  0  0  0  0  0  0  0  0  0
    5.2954    0.9024    0.0436 H   0  0  0  0  0  0  0  0  0  0  0  0
  1  2  1  0  0  0  0
  1 46  1  0  0  0  0
  1 47  1  0  0  0  0
  1 48  1  0  0  0  0
  2  3  2  0  0  0  0
  2  4  1  0  0  0  0
  4  5  1  0  0  0  0
  4 49  1  0  0  0  0
  5  6  1  1  0  0  0
  5 14  1  0  0  0  0
  5  7  1  0  0  0  0
  7  8  1  1  0  0  0
  7  9  1  0  0  0  0
  7 45  1  0  0  0  0
  9 10  1  1  0  0  0
  9 11  1  0  0  0  0
  9 28  1  0  0  0  0
 11 12  1  6  0  0  0
 11 13  1  0  0  0  0
 11 26  1  0  0  0  0
 13 14  1  0  0  0  0
 14 15  1  6  0  0  0
 14 16  1  0  0  0  0
 16 17  1  0  0  0  0
 17 18  1  0  0  0  0
 17 50  1  0  0  0  0
 17 51  1  0  0  0  0
 18 19  1  0  0  0  0
 18 52  1  0  0  0  0
 18 53  1  0  0  0  0
 19 20  1  0  0  0  0
 20 21  1  0  0  0  0
 20 54  1  0  0  0  0
 20 55  1  0  0  0  0
 21 22  1  0  0  0  0
 21 56  1  0  0  0  0
 21 57  1  0  0  0  0
 22 23  2  0  0  0  0
 22 24  1  0  0  0  0
 24 25  1  0  0  0  0
 25 58  1  0  0  0  0
 25 59  1  0  0  0  0
 25 60  1  0  0  0  0
 26 27  1  0  0  0  0
 26 61  1  0  0  0  0
 26 62  1  0  0  0  0
 27 63  1  0  0  0  0
 28 29  1  0  0  0  0
 29 30  1  1  0  0  0
 29 39  1  0  0  0  0
 29 31  1  0  0  0  0
 31 32  1  1  0  0  0
 31 33  1  0  0  0  0
 31 44  1  0  0  0  0
 33 34  1  1  0  0  0
 33 35  1  0  0  0  0
 33 43  1  0  0  0  0
 35 36  1  1  0  0  0
 35 37  1  0  0  0  0
 35 42  1  0  0  0  0
 37 38  1  1  0  0  0
 37 39  1  0  0  0  0
 37 40  1  0  0  0  0
 40 41  1  0  0  0  0
 40 64  1  0  0  0  0
 40 65  1  0  0  0  0
 41 66  1  0  0  0  0
 42 67  1  0  0  0  0
 43 68  1  0  0  0  0
 44 69  1  0  0  0  0
 45 70  1  0  0  0  0
M  END
$$$$
ZINC64590021
 OpenBabel01252620473D

 55 56  0  0  0  0  0  0  0  0999 V2000
   -0.5627    1.5258   -0.2741 C   0  0  0  0  0  0  0  0  0  0  0  0
   -0.5651    0.0190   -0.2478 C   0  0  0  0  0  0  0  0  0  0  0  0
   -1.0923   -0.5707    0.6715 O   0  0  0  0  0  0  0  0  0  0  0  0
    0.0188   -0.6733   -1.2460 N   0  0  0  0  0  0  0  0  0  0  0  0
    0.1208   -2.0608   -1.1648 C   0  0  0  0  0  0  0  0  0  0  0  0
    0.1283   -2.6872    0.0742 C   0  0  0  0  0  0  0  0  0  0  0  0
    0.2297   -4.0604    0.1562 C   0  0  0  0  0  0  0  0  0  0  0  0
    0.3247   -4.8293   -1.0002 C   0  0  0  0  0  0  0  0  0  0  0  0
    0.3187   -4.2211   -2.2429 C   0  0  0  0  0  0  0  0  0  0  0  0
    0.2104   -2.8299   -2.3359 C   0  0  0  0  0  0  0  0  0  0  0  0
    0.1966   -2.1753   -3.6537 C   0  0  0  0  0  0  0  0  0  0  0  0
    0.3721   -2.8373   -4.6675 O   0  0  0  0  0  0  0  0  0  0  0  0
    0.0095   -0.9690   -3.7357 O   0  0  0  0  0  1  0  0  0  0  0  0
    0.4271   -6.2217   -0.9056 N   0  0  0  0  0  0  0  0  0  0  0  0
    0.6494   -7.0454   -2.1036 C   0  0  0  0  0  0  0  0  0  0  0  0
    1.8375   -7.9768   -1.8404 C   0  0  0  0  0  0  0  0  0  0  0  0
    1.5989   -8.7317   -0.6030 N   0  0  0  0  0  0  0  0  0  0  0  0
    1.5165   -7.8373    0.5594 C   0  0  0  0  0  0  0  0  0  0  0  0
    0.3214   -6.8997    0.3953 C   0  0  0  0  0  0  0  0  0  0  0  0
    2.6310   -9.7582   -0.4053 C   0  0  0  0  0  0  0  0  0  0  0  0
    2.2259  -10.6663    0.7271 C   0  0  0  0  0  0  0  0  0  0  0  0
    1.1804  -10.4771    1.3118 O   0  0  0  0  0  0  0  0  0  0  0  0
    3.0255  -11.6888    1.0900 N   0  0  0  0  0  0  0  0  0  0  0  0
    2.6317  -12.5716    2.1908 C   0  0  0  0  0  0  0  0  0  0  0  0
    3.7066  -13.6407    2.3967 C   0  0  0  0  0  0  0  0  0  0  0  0
    3.2954  -14.5627    3.5463 C   0  0  0  0  0  0  0  0  0  0  0  0
    4.2994  -15.5612    3.7386 O   0  0  0  0  0  0  0  0  0  0  0  0
    4.0112  -16.4792    4.7952 C   0  0  0  0  0  0  0  0  0  0  0  0
    0.3272    1.8966    0.2345 H   0  0  0  0  0  0  0  0  0  0  0  0
   -0.5608    1.8711   -1.3079 H   0  0  0  0  0  0  0  0  0  0  0  0
   -1.4528    1.8994    0.2322 H   0  0  0  0  0  0  0  0  0  0  0  0
    0.3680   -0.2058   -2.0208 H   0  0  0  0  0  0  0  0  0  0  0  0
    0.0550   -2.0977    0.9762 H   0  0  0  0  0  0  0  0  0  0  0  0
    0.2357   -4.5417    1.1230 H   0  0  0  0  0  0  0  0  0  0  0  0
    0.3933   -4.8194   -3.1389 H   0  0  0  0  0  0  0  0  0  0  0  0
   -0.2416   -7.6380   -2.3110 H   0  0  0  0  0  0  0  0  0  0  0  0
    0.8706   -6.4015   -2.9548 H   0  0  0  0  0  0  0  0  0  0  0  0
    1.9476   -8.6703   -2.6740 H   0  0  0  0  0  0  0  0  0  0  0  0
    2.7471   -7.3854   -1.7360 H   0  0  0  0  0  0  0  0  0  0  0  0
    1.3939   -8.4297    1.4662 H   0  0  0  0  0  0  0  0  0  0  0  0
    2.4306   -7.2479    0.6304 H   0  0  0  0  0  0  0  0  0  0  0  0
    0.3258   -6.1595    1.1954 H   0  0  0  0  0  0  0  0  0  0  0  0
   -0.6017   -7.4781    0.4328 H   0  0  0  0  0  0  0  0  0  0  0  0
    2.7413  -10.3431   -1.3184 H   0  0  0  0  0  0  0  0  0  0  0  0
    3.5795   -9.2781   -0.1645 H   0  0  0  0  0  0  0  0  0  0  0  0
    3.8617  -11.8402    0.6223 H   0  0  0  0  0  0  0  0  0  0  0  0
    2.5214  -11.9867    3.1039 H   0  0  0  0  0  0  0  0  0  0  0  0
    1.6832  -13.0517    1.9500 H   0  0  0  0  0  0  0  0  0  0  0  0
    3.8170  -14.2256    1.4835 H   0  0  0  0  0  0  0  0  0  0  0  0
    4.6551  -13.1606    2.6375 H   0  0  0  0  0  0  0  0  0  0  0  0
    3.1850  -13.9778    4.4595 H   0  0  0  0  0  0  0  0  0  0  0  0
    2.3469  -15.0428    3.3055 H   0  0  0  0  0  0  0  0  0  0  0  0
    3.9158  -15.9341    5.7342 H   0  0  0  0  0  0  0  0  0  0  0  0
    3.0776  -16.9991    4.5803 H   0  0  0  0  0  0  0  0  0  0  0  0
    4.8206  -17.2048    4.8769 H   0  0  0  0  0  0  0  0  0  0  0  0
  1  2  1  0  0  0  0
  1 29  1  0  0  0  0
  1 30  1  0  0  0  0
  1 31  1  0  0  0  0
  2  3  2  0  0  0  0
  2  4  1  0  0  0  0
  4  5  1  0  0  0  0
  4 32  1  0  0  0  0
  5 10  2  0  0  0  0
  5  6  1  0  0  0  0
  6  7  2  0  0  0  0
  6 33  1  0  0  0  0
  7  8  1  0  0  0  0
  7 34  1  0  0  0  0
  8  9  2  0  0  0  0
  8 14  1  0  0  0  0
  9 10  1  0  0  0  0
  9 35  1  0  0  0  0
 10 11  1  0  0  0  0
 11 12  2  0  0  0  0
 11 13  1  0  0  0  0
 14 19  1  0  0  0  0
 14 15  1  0  0  0  0
 15 16  1  0  0  0  0
 15 36  1  0  0  0  0
 15 37  1  0  0  0  0
 16 17  1  0  0  0  0
 16 38  1  0  0  0  0
 16 39  1  0  0  0  0
 17 18  1  0  0  0  0
 17 20  1  0  0  0  0
 18 19  1  0  0  0  0
 18 40  1  0  0  0  0
 18 41  1  0  0  0  0
 19 42  1  0  0  0  0
 19 43  1  0  0  0  0
 20 21  1  0  0  0  0
 20 44  1  0  0  0  0
 20 45  1  0  0  0  0
 21 22  2  0  0  0  0
 21 23  1  0  0  0  0
 23 24  1  0  0  0  0
 23 46  1  0  0  0  0
 24 25  1  0  0  0  0
 24 47  1  0  0  0  0
 24 48  1  0  0  0  0
 25 26  1  0  0  0  0
 25 49  1  0  0  0  0
 25 50  1  0  0  0  0
 26 27  1  0  0  0  0
 26 51  1  0  0  0  0
 26 52  1  0  0  0  0
 27 28  1  0  0  0  0
 28 53  1  0  0  0  0
 28 54  1  0  0  0  0
 28 55  1  0  0  0  0
M  END
$$$$
ZINC13414408
 OpenBabel01252620473D

 40 41  0  0  1  0  0  0  0  0999 V2000
   -2.5401    3.9255    1.1501 C   0  0  0  0  0  0  0  0  0  0  0  0
   -1.2788    3.0607    1.1975 C   0  0  2  0  0  0  0  0  0  0  0  0
   -1.2511    2.5090    2.1371 H   0  0  0  0  0  0  0  0  0  0  0  0
   -0.0417    3.9557    1.0940 C   0  0  0  0  0  0  0  0  0  0  0  0
    1.2210    3.0948    1.1743 C   0  0  2  0  0  0  0  0  0  0  0  0
    2.1020    3.7347    1.1243 H   0  0  0  0  0  0  0  0  0  0  0  0
    1.2377    2.1093    0.0016 C   0  0  0  0  0  0  0  0  0  0  0  0
   -0.0162    1.3436    0.0094 N   0  0  0  0  0  0  0  0  0  0  0  0
   -1.2905    2.0749    0.0193 C   0  0  0  0  0  0  0  0  0  0  0  0
    0.0021   -0.0041    0.0020 C   0  0  0  0  0  0  0  0  0  0  0  0
    1.0605   -0.5961   -0.0113 O   0  0  0  0  0  0  0  0  0  0  0  0
   -1.2926   -0.7753    0.0102 C   0  0  0  0  0  0  0  0  0  0  0  0
   -0.9378   -2.5501   -0.0027 S   0  0  0  0  0  0  0  0  0  0  0  0
   -2.5793   -3.1904    0.0096 C   0  0  0  0  0  0  0  0  0  0  0  0
   -2.9789   -4.4485    0.0066 N   0  0  0  0  0  0  0  0  0  0  0  0
   -4.2620   -4.7570    0.0179 C   0  0  0  0  0  0  0  0  0  0  0  0
   -5.1683   -3.7505    0.0327 C   0  0  0  0  0  0  0  0  0  0  0  0
   -4.0865   -2.3284    0.0363 S   0  0  0  0  0  0  0  0  0  0  0  0
   -4.7086   -6.1962    0.0149 C   0  0  0  0  0  0  0  0  0  0  0  0
   -4.0914   -6.9113   -1.1593 C   0  0  0  0  0  0  0  0  0  0  0  0
   -3.3635   -6.3135   -1.9160 O   0  0  0  0  0  0  0  0  0  0  0  0
    1.2273    2.3193    2.4932 C   0  0  0  0  0  0  0  0  0  0  0  0
   -2.5680    4.4761    0.2098 H   0  0  0  0  0  0  0  0  0  0  0  0
   -3.4209    3.2877    1.2238 H   0  0  0  0  0  0  0  0  0  0  0  0
   -2.5300    4.6287    1.9828 H   0  0  0  0  0  0  0  0  0  0  0  0
   -0.0439    4.6745    1.9134 H   0  0  0  0  0  0  0  0  0  0  0  0
   -0.0578    4.4890    0.1434 H   0  0  0  0  0  0  0  0  0  0  0  0
    2.0823    1.4285    0.1084 H   0  0  0  0  0  0  0  0  0  0  0  0
    1.3247    2.6584   -0.9360 H   0  0  0  0  0  0  0  0  0  0  0  0
   -1.4055    2.6213   -0.9168 H   0  0  0  0  0  0  0  0  0  0  0  0
   -2.1146    1.3714    0.1379 H   0  0  0  0  0  0  0  0  0  0  0  0
   -1.8592   -0.5245    0.9070 H   0  0  0  0  0  0  0  0  0  0  0  0
   -1.8762   -0.5150   -0.8728 H   0  0  0  0  0  0  0  0  0  0  0  0
   -6.2473   -3.7953    0.0437 H   0  0  0  0  0  0  0  0  0  0  0  0
   -4.3918   -6.6769    0.9405 H   0  0  0  0  0  0  0  0  0  0  0  0
   -5.7950   -6.2394   -0.0635 H   0  0  0  0  0  0  0  0  0  0  0  0
    2.1253    1.7040    2.5486 H   0  0  0  0  0  0  0  0  0  0  0  0
    1.2154    3.0208    3.3273 H   0  0  0  0  0  0  0  0  0  0  0  0
    0.3456    1.6804    2.5432 H   0  0  0  0  0  0  0  0  0  0  0  0
   -4.3503   -8.2123   -1.3644 O   0  0  0  0  0  1  0  0  0  0  0  0
  1  2  1  0  0  0  0
  1 23  1  0  0  0  0
  1 24  1  0  0  0  0
  1 25  1  0  0  0  0
  2  3  1  1  0  0  0
  2  9  1  0  0  0  0
  2  4  1  0  0  0  0
  4  5  1  0  0  0  0
  4 26  1  0  0  0  0
  4 27  1  0  0  0  0
  5  6  1  6  0  0  0
  5  7  1  0  0  0  0
  5 22  1  0  0  0  0
  7  8  1  0  0  0  0
  7 28  1  0  0  0  0
  7 29  1  0  0  0  0
  8  9  1  0  0  0  0
  8 10  1  0  0  0  0
  9 30  1  0  0  0  0
  9 31  1  0  0  0  0
 10 11  2  0  0  0  0
 10 12  1  0  0  0  0
 12 13  1  0  0  0  0
 12 32  1  0  0  0  0
 12 33  1  0  0  0  0
 13 14  1  0  0  0  0
 14 18  1  0  0  0  0
 14 15  2  0  0  0  0
 15 16  1  0  0  0  0
 16 17  2  0  0  0  0
 16 19  1  0  0  0  0
 17 18  1  0  0  0  0
 17 34  1  0  0  0  0
 19 20  1  0  0  0  0
 19 35  1  0  0  0  0
 19 36  1  0  0  0  0
 20 21  2  0  0  0  0
 20 40  1  0  0  0  0
 22 37  1  0  0  0  0
 22 38  1  0  0  0  0
 22 39  1  0  0  0  0
M  END
$$$$
ZINC13093180
 OpenBabel01252620473D

 54 56  0  0  0  0  0  0  0  0999 V2000
   -2.5776    1.0840  -15.0937 C   0  0  0  0  0  0  0  0  0  0  0  0
   -2.0743    2.4886  -14.7550 C   0  0  0  0  0  0  0  0  0  0  0  0
   -2.9763    3.1090  -13.7814 N   0  0  0  0  0  0  0  0  0  0  0  0
   -4.1221    3.8968  -14.2428 C   0  0  0  0  0  0  0  0  0  0  0  0
   -3.7036    5.3596  -14.4035 C   0  0  0  0  0  0  0  0  0  0  0  0
   -2.7441    2.9495  -12.4148 C   0  0  0  0  0  0  0  0  0  0  0  0
   -3.6013    3.5391  -11.4920 C   0  0  0  0  0  0  0  0  0  0  0  0
   -3.3747    3.3839  -10.1419 C   0  0  0  0  0  0  0  0  0  0  0  0
   -2.2825    2.6335   -9.7004 C   0  0  0  0  0  0  0  0  0  0  0  0
   -1.4204    2.0471  -10.6299 C   0  0  0  0  0  0  0  0  0  0  0  0
   -1.6558    2.2018  -11.9786 C   0  0  0  0  0  0  0  0  0  0  0  0
   -2.0362    2.4656   -8.2538 C   0  0  0  0  0  0  0  0  0  0  0  0
   -2.7590    2.9640   -7.2803 N   0  0  0  0  0  0  0  0  0  0  0  0
   -2.2518    2.6171   -6.1501 N   0  0  0  0  0  0  0  0  0  0  0  0
   -1.1839    1.8828   -6.3572 C   0  0  0  0  0  0  0  0  0  0  0  0
   -1.0202    1.7753   -7.6899 O   0  0  0  0  0  0  0  0  0  0  0  0
   -0.1498    1.1739   -5.1191 S   0  0  0  0  0  0  0  0  0  0  0  0
   -0.9970    1.7576   -3.6299 C   0  0  0  0  0  0  0  0  0  0  0  0
   -0.2681    1.2584   -2.4090 C   0  0  0  0  0  0  0  0  0  0  0  0
    0.7262    0.5752   -2.5335 O   0  0  0  0  0  0  0  0  0  0  0  0
   -0.7213    1.5711   -1.1789 N   0  0  0  0  0  0  0  0  0  0  0  0
   -0.0127    1.0858    0.0080 C   0  0  0  0  0  0  0  0  0  0  0  0
   -0.7181    1.5718    1.2479 C   0  0  0  0  0  0  0  0  0  0  0  0
   -0.3570    2.7804    1.8166 C   0  0  0  0  0  0  0  0  0  0  0  0
   -1.0018    3.2336    2.9487 C   0  0  0  0  0  0  0  0  0  0  0  0
   -2.0137    2.4645    3.5269 C   0  0  0  0  0  0  0  0  0  0  0  0
   -2.3694    1.2433    2.9508 C   0  0  0  0  0  0  0  0  0  0  0  0
   -1.7199    0.8047    1.8157 C   0  0  0  0  0  0  0  0  0  0  0  0
   -2.7052    2.9409    4.7423 C   0  0  0  0  0  0  0  0  0  0  0  0
   -3.5853    2.2699    5.2428 O   0  0  0  0  0  0  0  0  0  0  0  0
   -2.6051    0.4795  -14.1872 H   0  0  0  0  0  0  0  0  0  0  0  0
   -3.5798    1.1495  -15.5173 H   0  0  0  0  0  0  0  0  0  0  0  0
   -1.9065    0.6225  -15.8180 H   0  0  0  0  0  0  0  0  0  0  0  0
   -2.0468    3.0932  -15.6615 H   0  0  0  0  0  0  0  0  0  0  0  0
   -1.0721    2.4231  -14.3314 H   0  0  0  0  0  0  0  0  0  0  0  0
   -4.4665    3.5099  -15.2018 H   0  0  0  0  0  0  0  0  0  0  0  0
   -4.9282    3.8276  -13.5124 H   0  0  0  0  0  0  0  0  0  0  0  0
   -4.5561    5.9458  -14.7467 H   0  0  0  0  0  0  0  0  0  0  0  0
   -3.3592    5.7465  -13.4445 H   0  0  0  0  0  0  0  0  0  0  0  0
   -2.8974    5.4288  -15.1339 H   0  0  0  0  0  0  0  0  0  0  0  0
   -4.4454    4.1195  -11.8341 H   0  0  0  0  0  0  0  0  0  0  0  0
   -4.0406    3.8424   -9.4257 H   0  0  0  0  0  0  0  0  0  0  0  0
   -0.5725    1.4700  -10.2917 H   0  0  0  0  0  0  0  0  0  0  0  0
   -0.9922    1.7449  -12.6978 H   0  0  0  0  0  0  0  0  0  0  0  0
   -2.0196    1.3803   -3.6222 H   0  0  0  0  0  0  0  0  0  0  0  0
   -1.0118    2.8475   -3.6239 H   0  0  0  0  0  0  0  0  0  0  0  0
   -1.5165    2.1175   -1.0793 H   0  0  0  0  0  0  0  0  0  0  0  0
    0.0021   -0.0041    0.0020 H   0  0  0  0  0  0  0  0  0  0  0  0
    1.0099    1.4631    0.0003 H   0  0  0  0  0  0  0  0  0  0  0  0
    0.4286    3.3723    1.3707 H   0  0  0  0  0  0  0  0  0  0  0  0
   -0.7221    4.1792    3.3891 H   0  0  0  0  0  0  0  0  0  0  0  0
   -3.1514    0.6438    3.3928 H   0  0  0  0  0  0  0  0  0  0  0  0
   -1.9943   -0.1395    1.3688 H   0  0  0  0  0  0  0  0  0  0  0  0
   -2.3596    4.1195    5.2956 O   0  0  0  0  0  1  0  0  0  0  0  0
  1  2  1  0  0  0  0
  1 31  1  0  0  0  0
  1 32  1  0  0  0  0
  1 33  1  0  0  0  0
  2  3  1  0  0  0  0
  2 34  1  0  0  0  0
  2 35  1  0  0  0  0
  3  4  1  0  0  0  0
  3  6  1  0  0  0  0
  4  5  1  0  0  0  0
  4 36  1  0  0  0  0
  4 37  1  0  0  0  0
  5 38  1  0  0  0  0
  5 39  1  0  0  0  0
  5 40  1  0  0  0  0
  6 11  2  0  0  0  0
  6  7  1  0  0  0  0
  7  8  2  0  0  0  0
  7 41  1  0  0  0  0
  8  9  1  0  0  0  0
  8 42  1  0  0  0  0
  9 10  2  0  0  0  0
  9 12  1  0  0  0  0
 10 11  1  0  0  0  0
 10 43  1  0  0  0  0
 11 44  1  0  0  0  0
 12 16  1  0  0  0  0
 12 13  2  0  0  0  0
 13 14  1  0  0  0  0
 14 15  2  0  0  0  0
 15 16  1  0  0  0  0
 15 17  1  0  0  0  0
 17 18  1  0  0  0  0
 18 19  1  0  0  0  0
 18 45  1  0  0  0  0
 18 46  1  0  0  0  0
 19 20  2  0  0  0  0
 19 21  1  0  0  0  0
 21 22  1  0  0  0  0
 21 47  1  0  0  0  0
 22 23  1  0  0  0  0
 22 48  1  0  0  0  0
 22 49  1  0  0  0  0
 23 28  2  0  0  0  0
 23 24  1  0  0  0  0
 24 25  2  0  0  0  0
 24 50  1  0  0  0  0
 25 26  1  0  0  0  0
 25 51  1  0  0  0  0
 26 27  2  0  0  0  0
 26 29  1  0  0  0  0
 27 28  1  0  0  0  0
 27 52  1  0  0  0  0
 28 53  1  0  0  0  0
 29 30  2  0  0  0  0
 29 54  1  0  0  0  0
M  END
$$$$
ZINC36133528
 OpenBabel01252620473D

 35 35  0  0  1  0  0  0  0  0999 V2000
    0.0082    1.4765   -0.1581 C   0  0  0  0  0  0  0  0  0  0  0  0
    0.0194   -0.0436    0.0150 C   0  0  1  0  0  0  0  0  0  0  0  0
    0.5788   -0.3028    0.9139 H   0  0  0  0  0  0  0  0  0  0  0  0
   -1.3960   -0.5452    0.1422 C   0  0  0  0  0  0  0  0  0  0  0  0
   -1.9650   -1.0066   -0.8244 O   0  0  0  0  0  0  0  0  0  0  0  0
   -2.0295   -0.4811    1.3300 N   0  0  0  0  0  0  0  0  0  0  0  0
   -3.3640   -1.0665    1.4810 C   0  0  0  0  0  0  0  0  0  0  0  0
   -1.3837    0.1739    2.4702 C   0  0  0  0  0  0  0  0  0  0  0  0
    0.6542   -0.6633   -1.1509 N   0  0  0  0  0  0  0  0  0  0  0  0
    2.2655   -1.0433   -1.1120 S   0  0  0  0  0  0  0  0  0  0  0  0
    2.5710   -1.6456   -2.3623 O   0  0  0  0  0  0  0  0  0  0  0  0
    2.9438    0.1113   -0.6366 O   0  0  0  0  0  0  0  0  0  0  0  0
    2.4769   -2.2917    0.1133 C   0  0  0  0  0  0  0  0  0  0  0  0
    2.7337   -1.9340    1.4260 C   0  0  0  0  0  0  0  0  0  0  0  0
    2.9011   -2.9061    2.3951 C   0  0  0  0  0  0  0  0  0  0  0  0
    2.8126   -4.2430    2.0591 C   0  0  0  0  0  0  0  0  0  0  0  0
    2.5531   -4.6111    0.7352 C   0  0  0  0  0  0  0  0  0  0  0  0
    2.3805   -3.6215   -0.2368 C   0  0  0  0  0  0  0  0  0  0  0  0
    2.4574   -6.0358    0.3674 C   0  0  0  0  0  0  0  0  0  0  0  0
    2.2302   -6.3542   -0.7914 O   0  0  0  0  0  0  0  0  0  0  0  0
    2.6051   -6.8990    1.2211 O   0  0  0  0  0  1  0  0  0  0  0  0
    3.0236   -5.4625    3.2765 Cl  0  0  0  0  0  0  0  0  0  0  0  0
    1.0321    1.8500   -0.1555 H   0  0  0  0  0  0  0  0  0  0  0  0
   -0.4690    1.7309   -1.1045 H   0  0  0  0  0  0  0  0  0  0  0  0
   -0.5467    1.9315    0.6624 H   0  0  0  0  0  0  0  0  0  0  0  0
   -3.2712   -2.1068    1.7928 H   0  0  0  0  0  0  0  0  0  0  0  0
   -3.9218   -0.5099    2.2341 H   0  0  0  0  0  0  0  0  0  0  0  0
   -3.8918   -1.0182    0.5286 H   0  0  0  0  0  0  0  0  0  0  0  0
   -0.3770    0.4834    2.1891 H   0  0  0  0  0  0  0  0  0  0  0  0
   -1.9642    1.0487    2.7633 H   0  0  0  0  0  0  0  0  0  0  0  0
   -1.3293   -0.5229    3.3066 H   0  0  0  0  0  0  0  0  0  0  0  0
    0.1306   -0.8509   -1.9456 H   0  0  0  0  0  0  0  0  0  0  0  0
    2.8039   -0.8902    1.6944 H   0  0  0  0  0  0  0  0  0  0  0  0
    3.1018   -2.6194    3.4168 H   0  0  0  0  0  0  0  0  0  0  0  0
    2.1761   -3.8982   -1.2605 H   0  0  0  0  0  0  0  0  0  0  0  0
  1  2  1  0  0  0  0
  1 23  1  0  0  0  0
  1 24  1  0  0  0  0
  1 25  1  0  0  0  0
  2  3  1  1  0  0  0
  2  4  1  0  0  0  0
  2  9  1  0  0  0  0
  4  5  2  0  0  0  0
  4  6  1  0  0  0  0
  6  7  1  0  0  0  0
  6  8  1  0  0  0  0
  7 26  1  0  0  0  0
  7 27  1  0  0  0  0
  7 28  1  0  0  0  0
  8 29  1  0  0  0  0
  8 30  1  0  0  0  0
  8 31  1  0  0  0  0
  9 10  1  0  0  0  0
  9 32  1  0  0  0  0
 10 11  2  0  0  0  0
 10 12  2  0  0  0  0
 10 13  1  0  0  0  0
 13 18  2  0  0  0  0
 13 14  1  0  0  0  0
 14 15  2  0  0  0  0
 14 33  1  0  0  0  0
 15 16  1  0  0  0  0
 15 34  1  0  0  0  0
 16 17  2  0  0  0  0
 16 22  1  0  0  0  0
 17 18  1  0  0  0  0
 17 19  1  0  0  0  0
 18 35  1  0  0  0  0
 19 20  2  0  0  0  0
 19 21  1  0  0  0  0
M  END
$$$$
ZINC38617160
 OpenBabel01252620473D

 59 61  0  0  0  0  0  0  0  0999 V2000
    1.3066    0.1027    0.2830 C   0  0  0  0  0  0  0  0  0  0  0  0
    0.3684    0.8435   -0.6345 C   0  0  0  0  0  0  0  0  0  0  0  0
    0.1980    0.4343   -1.9519 C   0  0  0  0  0  0  0  0  0  0  0  0
   -0.7229    1.1817   -2.8100 C   0  0  0  0  0  0  0  0  0  0  0  0
   -0.8893    0.8421   -3.9680 O   0  0  0  0  0  0  0  0  0  0  0  0
   -1.3860    2.2446   -2.3172 N   0  0  0  0  0  0  0  0  0  0  0  0
   -1.2188    2.6415   -1.0340 C   0  0  0  0  0  0  0  0  0  0  0  0
   -0.3550    1.9584   -0.1706 C   0  0  0  0  0  0  0  0  0  0  0  0
   -0.1996    2.4064    1.2131 C   0  0  0  0  0  0  0  0  0  0  0  0
    0.4478    1.7431    1.9967 O   0  0  0  0  0  0  0  0  0  0  0  0
   -0.8432    3.6917    1.6658 C   0  0  0  0  0  0  0  0  0  0  0  0
   -0.6502    3.8548    3.1748 C   0  0  0  0  0  0  0  0  0  0  0  0
   -1.3036    5.1597    3.6344 C   0  0  0  0  0  0  0  0  0  0  0  0
   -1.1188    5.3159    5.0792 N   0  0  0  0  0  0  0  0  0  0  0  0
   -2.0250    4.8187    5.9041 C   0  0  0  0  0  0  0  0  0  0  0  0
   -3.0103    4.2336    5.4940 O   0  0  0  0  0  0  0  0  0  0  0  0
   -1.7806    5.0088    7.3479 C   0  0  0  0  0  0  0  0  0  0  0  0
   -2.5258    4.6128    8.4111 C   0  0  0  0  0  0  0  0  0  0  0  0
   -2.1524    5.0344    9.7672 C   0  0  0  0  0  0  0  0  0  0  0  0
   -1.1161    5.9572    9.9559 C   0  0  0  0  0  0  0  0  0  0  0  0
   -0.7702    6.3489   11.2295 C   0  0  0  0  0  0  0  0  0  0  0  0
   -1.4472    5.8300   12.3271 C   0  0  0  0  0  0  0  0  0  0  0  0
   -2.4765    4.9134   12.1457 C   0  0  0  0  0  0  0  0  0  0  0  0
   -2.8352    4.5197   10.8762 C   0  0  0  0  0  0  0  0  0  0  0  0
   -1.1017    6.2195   13.5810 O   0  0  0  0  0  0  0  0  0  0  0  0
   -1.8379    5.6476   14.6640 C   0  0  0  0  0  0  0  0  0  0  0  0
   -0.2336    5.9038    7.3106 S   0  0  0  0  0  0  0  0  0  0  0  0
   -0.0257    5.9587    5.5381 C   0  0  0  0  0  0  0  0  0  0  0  0
    1.2510    6.6602    4.6386 S   0  0  0  0  0  0  0  0  0  0  0  0
   -1.8999    3.7093   -0.5786 O   0  5  0  0  0  0  0  0  0  0  0  0
   -2.3047    2.9851   -3.1854 C   0  0  0  0  0  0  0  0  0  0  0  0
   -1.5353    3.5426   -4.3846 C   0  0  0  0  0  0  0  0  0  0  0  0
   -3.4081    2.0470   -3.6788 C   0  0  0  0  0  0  0  0  0  0  0  0
    0.9113   -0.6982   -2.4609 C   0  0  0  0  0  0  0  0  0  0  0  0
    1.4772   -1.5967   -2.8647 N   0  0  0  0  0  0  0  0  0  0  0  0
    0.7483   -0.6436    0.8482 H   0  0  0  0  0  0  0  0  0  0  0  0
    2.0781   -0.3912   -0.3078 H   0  0  0  0  0  0  0  0  0  0  0  0
    1.7722    0.8070    0.9724 H   0  0  0  0  0  0  0  0  0  0  0  0
   -0.3809    4.5318    1.1474 H   0  0  0  0  0  0  0  0  0  0  0  0
   -1.9085    3.6650    1.4365 H   0  0  0  0  0  0  0  0  0  0  0  0
   -1.1124    3.0148    3.6931 H   0  0  0  0  0  0  0  0  0  0  0  0
    0.4151    3.8815    3.4040 H   0  0  0  0  0  0  0  0  0  0  0  0
   -0.8414    5.9998    3.1160 H   0  0  0  0  0  0  0  0  0  0  0  0
   -2.3689    5.1330    3.4051 H   0  0  0  0  0  0  0  0  0  0  0  0
   -3.3934    3.9876    8.2597 H   0  0  0  0  0  0  0  0  0  0  0  0
   -0.5889    6.3604    9.1039 H   0  0  0  0  0  0  0  0  0  0  0  0
    0.0289    7.0605   11.3763 H   0  0  0  0  0  0  0  0  0  0  0  0
   -2.9989    4.5131   13.0020 H   0  0  0  0  0  0  0  0  0  0  0  0
   -3.6382    3.8111   10.7362 H   0  0  0  0  0  0  0  0  0  0  0  0
   -2.8931    5.8999   14.5594 H   0  0  0  0  0  0  0  0  0  0  0  0
   -1.7204    4.5640   14.6511 H   0  0  0  0  0  0  0  0  0  0  0  0
   -1.4618    6.0426   15.6077 H   0  0  0  0  0  0  0  0  0  0  0  0
   -2.7504    3.8074   -2.6256 H   0  0  0  0  0  0  0  0  0  0  0  0
   -1.0897    2.7204   -4.9445 H   0  0  0  0  0  0  0  0  0  0  0  0
   -2.2188    4.0936   -5.0306 H   0  0  0  0  0  0  0  0  0  0  0  0
   -0.7493    4.2110   -4.0332 H   0  0  0  0  0  0  0  0  0  0  0  0
   -3.9562    1.6498   -2.8244 H   0  0  0  0  0  0  0  0  0  0  0  0
   -4.0916    2.5980   -4.3247 H   0  0  0  0  0  0  0  0  0  0  0  0
   -2.9624    1.2247   -4.2386 H   0  0  0  0  0  0  0  0  0  0  0  0
  1  2  1  0  0  0  0
  1 36  1  0  0  0  0
  1 37  1  0  0  0  0
  1 38  1  0  0  0  0
  2  8  1  0  0  0  0
  2  3  2  0  0  0  0
  3  4  1  0  0  0  0
  3 34  1  0  0  0  0
  4  5  2  0  0  0  0
  4  6  1  0  0  0  0
  6  7  1  0  0  0  0
  6 31  1  0  0  0  0
  7  8  2  0  0  0  0
  7 30  1  0  0  0  0
  8  9  1  0  0  0  0
  9 10  2  0  0  0  0
  9 11  1  0  0  0  0
 11 12  1  0  0  0  0
 11 39  1  0  0  0  0
 11 40  1  0  0  0  0
 12 13  1  0  0  0  0
 12 41  1  0  0  0  0
 12 42  1  0  0  0  0
 13 14  1  0  0  0  0
 13 43  1  0  0  0  0
 13 44  1  0  0  0  0
 14 28  1  0  0  0  0
 14 15  1  0  0  0  0
 15 16  2  0  0  0  0
 15 17  1  0  0  0  0
 17 18  2  0  0  0  0
 17 27  1  0  0  0  0
 18 19  1  0  0  0  0
 18 45  1  0  0  0  0
 19 24  2  0  0  0  0
 19 20  1  0  0  0  0
 20 21  2  0  0  0  0
 20 46  1  0  0  0  0
 21 22  1  0  0  0  0
 21 47  1  0  0  0  0
 22 23  2  0  0  0  0
 22 25  1  0  0  0  0
 23 24  1  0  0  0  0
 23 48  1  0  0  0  0
 24 49  1  0  0  0  0
 25 26  1  0  0  0  0
 26 50  1  0  0  0  0
 26 51  1  0  0  0  0
 26 52  1  0  0  0  0
 27 28  1  0  0  0  0
 28 29  2  0  0  0  0
 31 32  1  0  0  0  0
 31 33  1  0  0  0  0
 31 53  1  0  0  0  0
 32 54  1  0  0  0  0
 32 55  1  0  0  0  0
 32 56  1  0  0  0  0
 33 57  1  0  0  0  0
 33 58  1  0  0  0  0
 33 59  1  0  0  0  0
 34 35  3  0  0  0  0
M  CHG  1  30  -1
M  END
$$$$
ZINC40083739
 OpenBabel01252620473D

 64 66  0  0  1  0  0  0  0  0999 V2000
    8.1905  -12.8285   10.3674 C   0  0  0  0  0  0  0  0  0  0  0  0
    7.8201  -12.1693    9.0374 C   0  0  0  0  0  0  0  0  0  0  0  0
    6.3232  -11.8528    9.0245 C   0  0  0  0  0  0  0  0  0  0  0  0
    5.9740  -11.0911    7.7444 C   0  0  0  0  0  0  0  0  0  0  0  0
    4.6000  -10.7001    7.7825 O   0  0  0  0  0  0  0  0  0  0  0  0
    4.1020  -10.0907    6.6772 C   0  0  0  0  0  0  0  0  0  0  0  0
    4.9465   -9.7798    5.6169 C   0  0  0  0  0  0  0  0  0  0  0  0
    4.4454   -9.1620    4.4936 C   0  0  0  0  0  0  0  0  0  0  0  0
    3.0849   -8.8470    4.4195 C   0  0  0  0  0  0  0  0  0  0  0  0
    2.2394   -9.1613    5.4877 C   0  0  0  0  0  0  0  0  0  0  0  0
    2.7479   -9.7840    6.6054 C   0  0  0  0  0  0  0  0  0  0  0  0
    0.7726   -8.8237    5.4135 C   0  0  0  0  0  0  0  0  0  0  0  0
    2.5432   -8.1840    3.2171 C   0  0  0  0  0  0  0  0  0  0  0  0
    2.7607   -7.0024    3.0236 O   0  0  0  0  0  0  0  0  0  0  0  0
    1.7429   -8.9493    2.2557 C   0  0  0  0  0  0  0  0  0  0  0  0
    1.4703  -10.2738    2.3058 C   0  0  0  0  0  0  0  0  0  0  0  0
    0.6324  -10.6415    1.1452 C   0  0  0  0  0  0  0  0  0  0  0  0
    0.2211  -11.7600    0.9085 O   0  0  0  0  0  0  0  0  0  0  0  0
    0.3923   -9.5546    0.3895 N   0  0  0  0  0  0  0  0  0  0  0  0
    1.0583   -8.4096    1.0216 C   0  0  2  0  0  0  0  0  0  0  0  0
    0.3245   -7.6534    1.3006 H   0  0  0  0  0  0  0  0  0  0  0  0
    2.0768   -7.8217    0.0793 C   0  0  0  0  0  0  0  0  0  0  0  0
    2.9117   -8.6553   -0.6414 C   0  0  0  0  0  0  0  0  0  0  0  0
    3.8477   -8.1209   -1.5071 C   0  0  0  0  0  0  0  0  0  0  0  0
    3.9502   -6.7469   -1.6544 C   0  0  0  0  0  0  0  0  0  0  0  0
    3.1096   -5.9079   -0.9293 C   0  0  0  0  0  0  0  0  0  0  0  0
    2.1704   -6.4502   -0.0669 C   0  0  0  0  0  0  0  0  0  0  0  0
    3.2064   -4.5587   -1.0704 O   0  0  0  0  0  0  0  0  0  0  0  0
    2.3849   -3.7568   -0.2194 C   0  0  0  0  0  0  0  0  0  0  0  0
    2.6007   -2.2782   -0.5480 C   0  0  0  0  0  0  0  0  0  0  0  0
    4.8707   -6.2195   -2.5053 O   0  0  0  0  0  0  0  0  0  0  0  0
   -0.3992   -9.5190   -0.8427 C   0  0  0  0  0  0  0  0  0  0  0  0
   -1.8627   -9.2323   -0.5007 C   0  0  0  0  0  0  0  0  0  0  0  0
   -1.9734   -7.9216    0.0577 O   0  0  0  0  0  0  0  0  0  0  0  0
    1.8971  -11.1262    3.2660 O   0  5  0  0  0  0  0  0  0  0  0  0
    7.6230  -13.7516   10.4859 H   0  0  0  0  0  0  0  0  0  0  0  0
    9.2569  -13.0540   10.3766 H   0  0  0  0  0  0  0  0  0  0  0  0
    7.9556  -12.1498   11.1873 H   0  0  0  0  0  0  0  0  0  0  0  0
    8.3876  -11.2462    8.9189 H   0  0  0  0  0  0  0  0  0  0  0  0
    8.0550  -12.8480    8.2175 H   0  0  0  0  0  0  0  0  0  0  0  0
    5.7550  -12.7823    9.0606 H   0  0  0  0  0  0  0  0  0  0  0  0
    6.0738  -11.2406    9.8911 H   0  0  0  0  0  0  0  0  0  0  0  0
    6.6022  -10.2037    7.6668 H   0  0  0  0  0  0  0  0  0  0  0  0
    6.1449  -11.7339    6.8809 H   0  0  0  0  0  0  0  0  0  0  0  0
    5.9971  -10.0231    5.6751 H   0  0  0  0  0  0  0  0  0  0  0  0
    5.1020   -8.9206    3.6708 H   0  0  0  0  0  0  0  0  0  0  0  0
    2.0947  -10.0308    7.4293 H   0  0  0  0  0  0  0  0  0  0  0  0
    0.2207   -9.6832    5.0331 H   0  0  0  0  0  0  0  0  0  0  0  0
    0.4076   -8.5690    6.4085 H   0  0  0  0  0  0  0  0  0  0  0  0
    0.6284   -7.9747    4.7453 H   0  0  0  0  0  0  0  0  0  0  0  0
    2.8328   -9.7264   -0.5276 H   0  0  0  0  0  0  0  0  0  0  0  0
    4.4991   -8.7743   -2.0685 H   0  0  0  0  0  0  0  0  0  0  0  0
    1.5142   -5.8014    0.4942 H   0  0  0  0  0  0  0  0  0  0  0  0
    1.3377   -4.0150   -0.3768 H   0  0  0  0  0  0  0  0  0  0  0  0
    2.6519   -3.9404    0.8214 H   0  0  0  0  0  0  0  0  0  0  0  0
    2.0413   -1.6638    0.1575 H   0  0  0  0  0  0  0  0  0  0  0  0
    3.6620   -2.0408   -0.4746 H   0  0  0  0  0  0  0  0  0  0  0  0
    2.2524   -2.0766   -1.5610 H   0  0  0  0  0  0  0  0  0  0  0  0
    4.5457   -6.0932   -3.4072 H   0  0  0  0  0  0  0  0  0  0  0  0
   -0.0185   -8.7344   -1.4966 H   0  0  0  0  0  0  0  0  0  0  0  0
   -0.3263  -10.4813   -1.3493 H   0  0  0  0  0  0  0  0  0  0  0  0
   -2.4662   -9.2936   -1.4063 H   0  0  0  0  0  0  0  0  0  0  0  0
   -2.2173   -9.9666    0.2226 H   0  0  0  0  0  0  0  0  0  0  0  0
   -2.8759   -7.6717    0.2988 H   0  0  0  0  0  0  0  0  0  0  0  0
  1  2  1  0  0  0  0
  1 36  1  0  0  0  0
  1 37  1  0  0  0  0
  1 38  1  0  0  0  0
  2  3  1  0  0  0  0
  2 39  1  0  0  0  0
  2 40  1  0  0  0  0
  3  4  1  0  0  0  0
  3 41  1  0  0  0  0
  3 42  1  0  0  0  0
  4  5  1  0  0  0  0
  4 43  1  0  0  0  0
  4 44  1  0  0  0  0
  5  6  1  0  0  0  0
  6 11  2  0  0  0  0
  6  7  1  0  0  0  0
  7  8  2  0  0  0  0
  7 45  1  0  0  0  0
  8  9  1  0  0  0  0
  8 46  1  0  0  0  0
  9 10  2  0  0  0  0
  9 13  1  0  0  0  0
 10 11  1  0  0  0  0
 10 12  1  0  0  0  0
 11 47  1  0  0  0  0
 12 48  1  0  0  0  0
 12 49  1  0  0  0  0
 12 50  1  0  0  0  0
 13 14  2  0  0  0  0
 13 15  1  0  0  0  0
 15 20  1  0  0  0  0
 15 16  2  0  0  0  0
 16 17  1  0  0  0  0
 16 35  1  0  0  0  0
 17 18  2  0  0  0  0
 17 19  1  0  0  0  0
 19 20  1  0  0  0  0
 19 32  1  0  0  0  0
 20 21  1  1  0  0  0
 20 22  1  0  0  0  0
 22 27  2  0  0  0  0
 22 23  1  0  0  0  0
 23 24  2  0  0  0  0
 23 51  1  0  0  0  0
 24 25  1  0  0  0  0
 24 52  1  0  0  0  0
 25 26  2  0  0  0  0
 25 31  1  0  0  0  0
 26 27  1  0  0  0  0
 26 28  1  0  0  0  0
 27 53  1  0  0  0  0
 28 29  1  0  0  0  0
 29 30  1  0  0  0  0
 29 54  1  0  0  0  0
 29 55  1  0  0  0  0
 30 56  1  0  0  0  0
 30 57  1  0  0  0  0
 30 58  1  0  0  0  0
 31 59  1  0  0  0  0
 32 33  1  0  0  0  0
 32 60  1  0  0  0  0
 32 61  1  0  0  0  0
 33 34  1  0  0  0  0
 33 62  1  0  0  0  0
 33 63  1  0  0  0  0
 34 64  1  0  0  0  0
M  CHG  1  35  -1
M  END
$$$$
ZINC08905480
 OpenBabel01252620473D

 68 71  0  0  1  0  0  0  0  0999 V2000
   -3.8179   -7.6767    2.1281 C   0  0  0  0  0  0  0  0  0  0  0  0
   -2.4500   -7.2634    1.5814 C   0  0  0  0  0  0  0  0  0  0  0  0
   -1.6394   -6.7696    2.6496 O   0  0  0  0  0  0  0  0  0  0  0  0
   -0.3935   -6.3605    2.3342 C   0  0  0  0  0  0  0  0  0  0  0  0
   -0.0066   -6.4218    1.1830 O   0  0  0  0  0  0  0  0  0  0  0  0
    0.4946   -5.8418    3.3796 C   0  0  0  0  0  0  0  0  0  0  0  0
    1.7694   -5.3927    3.1944 C   0  0  0  0  0  0  0  0  0  0  0  0
    2.2527   -4.9876    4.4586 C   0  0  0  0  0  0  0  0  0  0  0  0
    1.2373   -5.2105    5.3723 C   0  0  0  0  0  0  0  0  0  0  0  0
    0.1820   -5.7189    4.7167 N   0  0  0  0  0  0  0  0  0  0  0  0
   -0.6655   -5.9635    5.1203 H   0  0  0  0  0  0  0  0  0  0  0  0
    1.3032   -4.9254    6.8506 C   0  0  0  0  0  0  0  0  0  0  0  0
    3.5873   -4.4325    4.7498 C   0  0  0  0  0  0  0  0  0  0  0  0
    4.3691   -4.2193    3.8416 O   0  0  0  0  0  0  0  0  0  0  0  0
    3.9728   -4.1373    6.1341 C   0  0  0  0  0  0  0  0  0  0  0  0
    4.6294   -4.9618    6.9820 C   0  0  0  0  0  0  0  0  0  0  0  0
    4.8194   -4.2758    8.2771 C   0  0  0  0  0  0  0  0  0  0  0  0
    5.3764   -4.7549    9.2448 O   0  0  0  0  0  0  0  0  0  0  0  0
    4.2850   -3.0421    8.2260 N   0  0  0  0  0  0  0  0  0  0  0  0
    3.7189   -2.8513    6.8854 C   0  0  1  0  0  0  0  0  0  0  0  0
    2.6474   -2.6641    6.9566 H   0  0  0  0  0  0  0  0  0  0  0  0
    4.4015   -1.7016    6.1903 C   0  0  0  0  0  0  0  0  0  0  0  0
    5.7797   -1.5975    6.2185 C   0  0  0  0  0  0  0  0  0  0  0  0
    6.4068   -0.5438    5.5809 C   0  0  0  0  0  0  0  0  0  0  0  0
    5.6542    0.4078    4.9138 C   0  0  0  0  0  0  0  0  0  0  0  0
    4.2739    0.3025    4.8863 C   0  0  0  0  0  0  0  0  0  0  0  0
    3.6493   -0.7549    5.5200 C   0  0  0  0  0  0  0  0  0  0  0  0
    6.2661    1.4385    4.2906 F   0  0  0  0  0  0  0  0  0  0  0  0
    4.2753   -2.0609    9.3138 C   0  0  0  0  0  0  0  0  0  0  0  0
    5.5319   -1.1923    9.2283 C   0  0  0  0  0  0  0  0  0  0  0  0
    5.5218   -0.1675   10.3644 C   0  0  0  0  0  0  0  0  0  0  0  0
    6.7283    0.6665   10.2823 N   0  0  0  0  0  0  0  0  0  0  0  0
    7.9368   -0.1276   10.5472 C   0  0  0  0  0  0  0  0  0  0  0  0
    9.1712    0.7647   10.3930 C   0  0  0  0  0  0  0  0  0  0  0  0
    9.0561    1.8855   11.2738 O   0  0  0  0  0  0  0  0  0  0  0  0
    7.8904    2.6815   11.0433 C   0  0  0  0  0  0  0  0  0  0  0  0
    6.6430    1.8086   11.2040 C   0  0  0  0  0  0  0  0  0  0  0  0
    5.0462   -6.2158    6.6905 O   0  5  0  0  0  0  0  0  0  0  0  0
    2.5200   -5.3393    1.8888 C   0  0  0  0  0  0  0  0  0  0  0  0
   -4.3032   -6.8133    2.5833 H   0  0  0  0  0  0  0  0  0  0  0  0
   -4.4361   -8.0534    1.3133 H   0  0  0  0  0  0  0  0  0  0  0  0
   -3.6888   -8.4578    2.8773 H   0  0  0  0  0  0  0  0  0  0  0  0
   -1.9647   -8.1268    1.1262 H   0  0  0  0  0  0  0  0  0  0  0  0
   -2.5790   -6.4823    0.8322 H   0  0  0  0  0  0  0  0  0  0  0  0
    1.0678   -3.8762    7.0291 H   0  0  0  0  0  0  0  0  0  0  0  0
    0.5825   -5.5536    7.3742 H   0  0  0  0  0  0  0  0  0  0  0  0
    2.3067   -5.1402    7.2177 H   0  0  0  0  0  0  0  0  0  0  0  0
    6.3665   -2.3397    6.7392 H   0  0  0  0  0  0  0  0  0  0  0  0
    7.4835   -0.4625    5.6034 H   0  0  0  0  0  0  0  0  0  0  0  0
    3.6858    1.0444    4.3665 H   0  0  0  0  0  0  0  0  0  0  0  0
    2.5729   -0.8397    5.4949 H   0  0  0  0  0  0  0  0  0  0  0  0
    3.3908   -1.4300    9.2261 H   0  0  0  0  0  0  0  0  0  0  0  0
    4.2574   -2.5806   10.2717 H   0  0  0  0  0  0  0  0  0  0  0  0
    6.4164   -1.8232    9.3160 H   0  0  0  0  0  0  0  0  0  0  0  0
    5.5498   -0.6725    8.2703 H   0  0  0  0  0  0  0  0  0  0  0  0
    4.6373    0.4634   10.2767 H   0  0  0  0  0  0  0  0  0  0  0  0
    5.5039   -0.6872   11.3223 H   0  0  0  0  0  0  0  0  0  0  0  0
    7.8975   -0.5224   11.5625 H   0  0  0  0  0  0  0  0  0  0  0  0
    7.9931   -0.9527    9.8371 H   0  0  0  0  0  0  0  0  0  0  0  0
   10.0659    0.1949   10.6442 H   0  0  0  0  0  0  0  0  0  0  0  0
    9.2399    1.1163    9.3636 H   0  0  0  0  0  0  0  0  0  0  0  0
    7.8588    3.4980   11.7647 H   0  0  0  0  0  0  0  0  0  0  0  0
    7.9219    3.0888   10.0327 H   0  0  0  0  0  0  0  0  0  0  0  0
    5.7549    2.3970   10.9734 H   0  0  0  0  0  0  0  0  0  0  0  0
    6.5831    1.4448   12.2298 H   0  0  0  0  0  0  0  0  0  0  0  0
    2.3429   -4.3778    1.4069 H   0  0  0  0  0  0  0  0  0  0  0  0
    3.5867   -5.4600    2.0777 H   0  0  0  0  0  0  0  0  0  0  0  0
    2.1734   -6.1416    1.2373 H   0  0  0  0  0  0  0  0  0  0  0  0
  1  2  1  0  0  0  0
  1 40  1  0  0  0  0
  1 41  1  0  0  0  0
  1 42  1  0  0  0  0
  2  3  1  0  0  0  0
  2 43  1  0  0  0  0
  2 44  1  0  0  0  0
  3  4  1  0  0  0  0
  4  5  2  0  0  0  0
  4  6  1  0  0  0  0
  6 10  1  0  0  0  0
  6  7  2  0  0  0  0
  7  8  1  0  0  0  0
  7 39  1  0  0  0  0
  8  9  2  0  0  0  0
  8 13  1  0  0  0  0
  9 10  1  0  0  0  0
  9 12  1  0  0  0  0
 10 11  1  0  0  0  0
 12 45  1  0  0  0  0
 12 46  1  0  0  0  0
 12 47  1  0  0  0  0
 13 14  2  0  0  0  0
 13 15  1  0  0  0  0
 15 20  1  0  0  0  0
 15 16  2  0  0  0  0
 16 17  1  0  0  0  0
 16 38  1  0  0  0  0
 17 18  2  0  0  0  0
 17 19  1  0  0  0  0
 19 20  1  0  0  0  0
 19 29  1  0  0  0  0
 20 21  1  1  0  0  0
 20 22  1  0  0  0  0
 22 27  2  0  0  0  0
 22 23  1  0  0  0  0
 23 24  2  0  0  0  0
 23 48  1  0  0  0  0
 24 25  1  0  0  0  0
 24 49  1  0  0  0  0
 25 26  2  0  0  0  0
 25 28  1  0  0  0  0
 26 27  1  0  0  0  0
 26 50  1  0  0  0  0
 27 51  1  0  0  0  0
 29 30  1  0  0  0  0
 29 52  1  0  0  0  0
 29 53  1  0  0  0  0
 30 31  1  0  0  0  0
 30 54  1  0  0  0  0
 30 55  1  0  0  0  0
 31 32  1  0  0  0  0
 31 56  1  0  0  0  0
 31 57  1  0  0  0  0
 32 37  1  0  0  0  0
 32 33  1  0  0  0  0
 33 34  1  0  0  0  0
 33 58  1  0  0  0  0
 33 59  1  0  0  0  0
 34 35  1  0  0  0  0
 34 60  1  0  0  0  0
 34 61  1  0  0  0  0
 35 36  1  0  0  0  0
 36 37  1  0  0  0  0
 36 62  1  0  0  0  0
 36 63  1  0  0  0  0
 37 64  1  0  0  0  0
 37 65  1  0  0  0  0
 39 66  1  0  0  0  0
 39 67  1  0  0  0  0
 39 68  1  0  0  0  0
M  CHG  1  38  -1
M  END
$$$$
ZINC09283094
 OpenBabel01252620473D

 38 40  0  0  0  0  0  0  0  0999 V2000
    0.7296    0.6650   -0.1706 C   0  0  0  0  0  0  0  0  0  0  0  0
    2.0324    1.1232   -0.1726 C   0  0  0  0  0  0  0  0  0  0  0  0
    3.0820    0.2286   -0.0584 C   0  0  0  0  0  0  0  0  0  0  0  0
    2.8296   -1.1270    0.0580 C   0  0  0  0  0  0  0  0  0  0  0  0
    1.5288   -1.5907    0.0610 C   0  0  0  0  0  0  0  0  0  0  0  0
    0.4733   -0.6951   -0.0534 C   0  0  0  0  0  0  0  0  0  0  0  0
   -0.8440   -1.1616   -0.0507 N   0  0  0  0  0  2  0  0  0  0  0  0
   -1.1478   -2.7834    0.0891 S   0  0  0  0  0  0  0  0  0  0  0  0
   -0.6433   -3.3943   -1.0906 O   0  0  0  0  0  0  0  0  0  0  0  0
   -0.7188   -3.1665    1.3885 O   0  0  0  0  0  0  0  0  0  0  0  0
   -2.8972   -2.9906    0.0548 C   0  0  0  0  0  0  0  0  0  0  0  0
   -3.6198   -2.9565    1.2339 C   0  0  0  0  0  0  0  0  0  0  0  0
   -4.9928   -3.1190    1.2128 C   0  0  0  0  0  0  0  0  0  0  0  0
   -5.6484   -3.3162    0.0122 C   0  0  0  0  0  0  0  0  0  0  0  0
   -4.9247   -3.3505   -1.1753 C   0  0  0  0  0  0  0  0  0  0  0  0
   -3.5453   -3.1811   -1.1493 C   0  0  0  0  0  0  0  0  0  0  0  0
   -5.5821   -3.5497   -2.3893 N   0  0  0  0  0  0  0  0  0  0  0  0
   -4.9093   -3.5813   -3.4895 N   0  0  0  0  0  0  0  0  0  0  0  0
   -5.5145   -3.8801   -4.6260 C   0  0  0  0  0  0  0  0  0  0  0  0
   -6.9141   -4.3346   -4.6560 C   0  0  0  0  0  0  0  0  0  0  0  0
   -7.6244   -4.4595   -3.5146 O   0  5  0  0  0  0  0  0  0  0  0  0
   -7.4594   -4.6172   -5.8257 N   0  0  0  0  0  0  0  0  0  0  0  0
   -6.7844   -4.5032   -6.9667 C   0  0  0  0  0  0  0  0  0  0  0  0
   -7.5900   -4.8961   -8.4253 S   0  0  0  0  0  0  0  0  0  0  0  0
   -5.5084   -4.0973   -7.0375 N   0  0  0  0  0  0  0  0  0  0  0  0
   -4.8190   -3.7672   -5.9241 C   0  0  0  0  0  0  0  0  0  0  0  0
   -3.6627   -3.3937   -5.9879 O   0  0  0  0  0  0  0  0  0  0  0  0
   -7.3720   -3.5213   -0.0138 Cl  0  0  0  0  0  0  0  0  0  0  0  0
    4.7185    0.8081   -0.0618 Cl  0  0  0  0  0  0  0  0  0  0  0  0
   -0.0893    1.3639   -0.2556 H   0  0  0  0  0  0  0  0  0  0  0  0
    2.2323    2.1806   -0.2636 H   0  0  0  0  0  0  0  0  0  0  0  0
    3.6507   -1.8230    0.1462 H   0  0  0  0  0  0  0  0  0  0  0  0
    1.3324   -2.6489    0.1515 H   0  0  0  0  0  0  0  0  0  0  0  0
   -3.1102   -2.8030    2.1737 H   0  0  0  0  0  0  0  0  0  0  0  0
   -5.5535   -3.0922    2.1355 H   0  0  0  0  0  0  0  0  0  0  0  0
   -2.9805   -3.2031   -2.0696 H   0  0  0  0  0  0  0  0  0  0  0  0
   -6.5451   -3.6646   -2.4063 H   0  0  0  0  0  0  0  0  0  0  0  0
   -5.0745   -4.0361   -7.9029 H   0  0  0  0  0  0  0  0  0  0  0  0
  1  6  2  0  0  0  0
  1  2  1  0  0  0  0
  1 30  1  0  0  0  0
  2  3  2  0  0  0  0
  2 31  1  0  0  0  0
  3  4  1  0  0  0  0
  3 29  1  0  0  0  0
  4  5  2  0  0  0  0
  4 32  1  0  0  0  0
  5  6  1  0  0  0  0
  5 33  1  0  0  0  0
  6  7  1  0  0  0  0
  7  8  1  0  0  0  0
  8  9  2  0  0  0  0
  8 10  2  0  0  0  0
  8 11  1  0  0  0  0
 11 16  2  0  0  0  0
 11 12  1  0  0  0  0
 12 13  2  0  0  0  0
 12 34  1  0  0  0  0
 13 14  1  0  0  0  0
 13 35  1  0  0  0  0
 14 15  2  0  0  0  0
 14 28  1  0  0  0  0
 15 16  1  0  0  0  0
 15 17  1  0  0  0  0
 16 36  1  0  0  0  0
 17 18  1  0  0  0  0
 17 37  1  0  0  0  0
 18 19  2  0  0  0  0
 19 26  1  0  0  0  0
 19 20  1  0  0  0  0
 20 21  1  0  0  0  0
 20 22  2  0  0  0  0
 22 23  1  0  0  0  0
 23 24  2  0  0  0  0
 23 25  1  0  0  0  0
 25 26  1  0  0  0  0
 25 38  1  0  0  0  0
 26 27  2  0  0  0  0
M  CHG  1  21  -1
M  END
$$$$
ZINC39086915
 OpenBabel01252620473D

 17 17  0  0  0  0  0  0  0  0999 V2000
   -0.0225    1.8097    0.0120 C   0  0  0  0  0  0  0  0  0  0  0  0
    0.0021   -0.0041    0.0020 S   0  0  0  0  0  0  0  0  0  0  0  0
    0.8352   -0.4880    1.0465 O   0  0  0  0  0  0  0  0  0  0  0  0
   -1.3147   -0.5105   -0.1678 O   0  0  0  0  0  0  0  0  0  0  0  0
    0.7947   -0.4113   -1.3938 N   0  0  0  0  0  2  0  0  0  0  0  0
    0.9897   -1.7399   -1.7145 C   0  0  0  0  0  0  0  0  0  0  0  0
    1.6031   -2.1801   -2.7816 N   0  0  0  0  0  0  0  0  0  0  0  0
    1.5972   -3.5444   -2.7483 C   0  0  0  0  0  0  0  0  0  0  0  0
    0.9505   -3.9152   -1.6091 C   0  0  0  0  0  0  0  0  0  0  0  0
    0.5846   -2.7867   -0.9769 O   0  0  0  0  0  0  0  0  0  0  0  0
    2.1795   -4.4443   -3.7533 C   0  0  0  0  0  0  0  0  0  0  0  0
    2.7381   -3.9812   -4.7389 O   0  0  0  0  0  0  0  0  0  0  0  0
    2.1059   -5.6569   -3.6048 O   0  0  0  0  0  1  0  0  0  0  0  0
    1.0001    2.1870    0.0043 H   0  0  0  0  0  0  0  0  0  0  0  0
   -0.5497    2.1708   -0.8711 H   0  0  0  0  0  0  0  0  0  0  0  0
   -0.5327    2.1613    0.9088 H   0  0  0  0  0  0  0  0  0  0  0  0
    0.7691   -4.9258   -1.2742 H   0  0  0  0  0  0  0  0  0  0  0  0
  1  2  1  0  0  0  0
  1 14  1  0  0  0  0
  1 15  1  0  0  0  0
  1 16  1  0  0  0  0
  2  3  2  0  0  0  0
  2  4  2  0  0  0  0
  2  5  1  0  0  0  0
  5  6  1  0  0  0  0
  6 10  1  0  0  0  0
  6  7  2  0  0  0  0
  7  8  1  0  0  0  0
  8  9  2  0  0  0  0
  8 11  1  0  0  0  0
  9 10  1  0  0  0  0
  9 17  1  0  0  0  0
 11 12  2  0  0  0  0
 11 13  1  0  0  0  0
M  END
$$$$
ZINC13246782
 OpenBabel01252620473D

 60 61  0  0  0  0  0  0  0  0999 V2000
   -3.4443    2.0241    3.6441 C   0  0  0  0  0  0  0  0  0  0  0  0
   -4.3014    2.5570    4.7940 C   0  0  0  0  0  0  0  0  0  0  0  0
   -5.2696    3.5310    4.2725 N   0  0  0  0  0  0  0  0  0  0  0  0
   -6.2556    3.8944    5.2990 C   0  0  0  0  0  0  0  0  0  0  0  0
   -7.2039    2.7170    5.5348 C   0  0  0  0  0  0  0  0  0  0  0  0
   -4.6200    4.6676    3.7760 C   0  0  0  0  0  0  0  0  0  0  0  0
   -3.8258    5.4361    4.6134 C   0  0  0  0  0  0  0  0  0  0  0  0
   -3.1849    6.5579    4.1209 C   0  0  0  0  0  0  0  0  0  0  0  0
   -3.3332    6.9170    2.7940 C   0  0  0  0  0  0  0  0  0  0  0  0
   -4.1190    6.1535    1.9506 C   0  0  0  0  0  0  0  0  0  0  0  0
   -4.7695    5.0299    2.4374 C   0  0  0  0  0  0  0  0  0  0  0  0
   -5.5697    4.2579    1.5863 N   0  0  0  0  0  0  0  0  0  0  0  0
   -5.1351    4.0529    0.0015 S   0  0  0  0  0  0  0  0  0  0  0  0
   -4.9249    5.3525   -0.5333 O   0  0  0  0  0  0  0  0  0  0  0  0
   -6.0674    3.1395   -0.5604 O   0  0  0  0  0  0  0  0  0  0  0  0
   -3.5694    3.2447   -0.0090 C   0  0  0  0  0  0  0  0  0  0  0  0
   -3.5080    1.8625   -0.0261 C   0  0  0  0  0  0  0  0  0  0  0  0
   -2.2856    1.2234   -0.0349 C   0  0  0  0  0  0  0  0  0  0  0  0
   -1.1086    1.9745   -0.0264 C   0  0  0  0  0  0  0  0  0  0  0  0
   -1.1779    3.3689   -0.0033 C   0  0  0  0  0  0  0  0  0  0  0  0
   -2.4070    3.9952   -0.0005 C   0  0  0  0  0  0  0  0  0  0  0  0
    0.2041    1.2969   -0.0358 C   0  0  0  0  0  0  0  0  0  0  0  0
    0.2612    0.0837   -0.0509 O   0  0  0  0  0  0  0  0  0  0  0  0
   -2.5129    8.3481    2.1744 S   0  0  0  0  0  0  0  0  0  0  0  0
   -3.2486    8.7772    1.0368 O   0  0  0  0  0  0  0  0  0  0  0  0
   -2.2737    9.1943    3.2906 O   0  0  0  0  0  0  0  0  0  0  0  0
   -1.0293    7.8616    1.6226 N   0  0  0  0  0  0  0  0  0  0  0  0
   -0.8696    7.4340    0.2306 C   0  0  0  0  0  0  0  0  0  0  0  0
   -0.3901    8.6161   -0.6143 C   0  0  0  0  0  0  0  0  0  0  0  0
    0.1236    7.8590    2.5266 C   0  0  0  0  0  0  0  0  0  0  0  0
    0.2961    6.4631    3.1290 C   0  0  0  0  0  0  0  0  0  0  0  0
   -2.8430    2.8350    3.2330 H   0  0  0  0  0  0  0  0  0  0  0  0
   -2.7878    1.2369    4.0148 H   0  0  0  0  0  0  0  0  0  0  0  0
   -4.0914    1.6207    2.8652 H   0  0  0  0  0  0  0  0  0  0  0  0
   -3.6604    3.0408    5.5310 H   0  0  0  0  0  0  0  0  0  0  0  0
   -4.8346    1.7301    5.2632 H   0  0  0  0  0  0  0  0  0  0  0  0
   -5.7401    4.1374    6.2281 H   0  0  0  0  0  0  0  0  0  0  0  0
   -6.8272    4.7597    4.9635 H   0  0  0  0  0  0  0  0  0  0  0  0
   -7.9899    3.0168    6.2279 H   0  0  0  0  0  0  0  0  0  0  0  0
   -7.6505    2.4149    4.5875 H   0  0  0  0  0  0  0  0  0  0  0  0
   -6.6467    1.8807    5.9569 H   0  0  0  0  0  0  0  0  0  0  0  0
   -3.7076    5.1583    5.6504 H   0  0  0  0  0  0  0  0  0  0  0  0
   -2.5670    7.1556    4.7746 H   0  0  0  0  0  0  0  0  0  0  0  0
   -4.2293    6.4345    0.9137 H   0  0  0  0  0  0  0  0  0  0  0  0
   -6.3785    3.8432    1.9250 H   0  0  0  0  0  0  0  0  0  0  0  0
   -4.4192    1.2828   -0.0330 H   0  0  0  0  0  0  0  0  0  0  0  0
   -2.2390    0.1445   -0.0486 H   0  0  0  0  0  0  0  0  0  0  0  0
   -0.2713    3.9557    0.0078 H   0  0  0  0  0  0  0  0  0  0  0  0
   -2.4620    5.0737    0.0125 H   0  0  0  0  0  0  0  0  0  0  0  0
   -0.1358    6.6296    0.1795 H   0  0  0  0  0  0  0  0  0  0  0  0
   -1.8261    7.0782   -0.1522 H   0  0  0  0  0  0  0  0  0  0  0  0
   -1.1238    9.4205   -0.5632 H   0  0  0  0  0  0  0  0  0  0  0  0
    0.5665    8.9719   -0.2315 H   0  0  0  0  0  0  0  0  0  0  0  0
   -0.2712    8.2979   -1.6500 H   0  0  0  0  0  0  0  0  0  0  0  0
    1.0217    8.1284    1.9708 H   0  0  0  0  0  0  0  0  0  0  0  0
   -0.0397    8.5819    3.3258 H   0  0  0  0  0  0  0  0  0  0  0  0
    1.1539    6.4612    3.8015 H   0  0  0  0  0  0  0  0  0  0  0  0
   -0.6020    6.1937    3.6847 H   0  0  0  0  0  0  0  0  0  0  0  0
    0.4594    5.7402    2.3297 H   0  0  0  0  0  0  0  0  0  0  0  0
    1.3377    2.0246   -0.0332 O   0  0  0  0  0  1  0  0  0  0  0  0
  1  2  1  0  0  0  0
  1 32  1  0  0  0  0
  1 33  1  0  0  0  0
  1 34  1  0  0  0  0
  2  3  1  0  0  0  0
  2 35  1  0  0  0  0
  2 36  1  0  0  0  0
  3  4  1  0  0  0  0
  3  6  1  0  0  0  0
  4  5  1  0  0  0  0
  4 37  1  0  0  0  0
  4 38  1  0  0  0  0
  5 39  1  0  0  0  0
  5 40  1  0  0  0  0
  5 41  1  0  0  0  0
  6 11  2  0  0  0  0
  6  7  1  0  0  0  0
  7  8  2  0  0  0  0
  7 42  1  0  0  0  0
  8  9  1  0  0  0  0
  8 43  1  0  0  0  0
  9 10  2  0  0  0  0
  9 24  1  0  0  0  0
 10 11  1  0  0  0  0
 10 44  1  0  0  0  0
 11 12  1  0  0  0  0
 12 13  1  0  0  0  0
 12 45  1  0  0  0  0
 13 14  2  0  0  0  0
 13 15  2  0  0  0  0
 13 16  1  0  0  0  0
 16 21  2  0  0  0  0
 16 17  1  0  0  0  0
 17 18  2  0  0  0  0
 17 46  1  0  0  0  0
 18 19  1  0  0  0  0
 18 47  1  0  0  0  0
 19 20  2  0  0  0  0
 19 22  1  0  0  0  0
 20 21  1  0  0  0  0
 20 48  1  0  0  0  0
 21 49  1  0  0  0  0
 22 23  2  0  0  0  0
 22 60  1  0  0  0  0
 24 25  2  0  0  0  0
 24 26  2  0  0  0  0
 24 27  1  0  0  0  0
 27 28  1  0  0  0  0
 27 30  1  0  0  0  0
 28 29  1  0  0  0  0
 28 50  1  0  0  0  0
 28 51  1  0  0  0  0
 29 52  1  0  0  0  0
 29 53  1  0  0  0  0
 29 54  1  0  0  0  0
 30 31  1  0  0  0  0
 30 55  1  0  0  0  0
 30 56  1  0  0  0  0
 31 57  1  0  0  0  0
 31 58  1  0  0  0  0
 31 59  1  0  0  0  0
M  END
$$$$
ZINC63215744
 OpenBabel01252620473D

 33 34  0  0  1  0  0  0  0  0999 V2000
   -0.0103    1.3085   -0.1347 C   0  0  0  0  0  0  0  0  0  0  0  0
    1.1846    2.0144   -0.2022 C   0  0  0  0  0  0  0  0  0  0  0  0
    2.3377    1.3875   -0.0631 N   0  0  0  0  0  0  0  0  0  0  0  0
    2.3596    0.0759    0.1429 C   0  0  0  0  0  0  0  0  0  0  0  0
    1.1523   -0.6373    0.2115 C   0  0  0  0  0  0  0  0  0  0  0  0
   -0.0034    0.0080    0.0690 N   0  0  0  0  0  0  0  0  0  0  0  0
    1.1642   -2.0947    0.4394 C   0  0  0  0  0  0  0  0  0  0  0  0
    2.0932   -2.6114    1.0442 O   0  0  0  0  0  0  0  0  0  0  0  0
    0.2452   -2.7862    0.0236 O   0  0  0  0  0  1  0  0  0  0  0  0
    3.5694   -0.5864    0.2890 N   0  0  0  0  0  0  0  0  0  0  0  0
    4.7198    0.1142    0.3357 C   0  0  0  0  0  0  0  0  0  0  0  0
    4.6972    1.3236    0.2499 O   0  0  0  0  0  0  0  0  0  0  0  0
    6.0344   -0.6054    0.4945 C   0  0  0  0  0  0  0  0  0  0  0  0
    7.3862    0.6039    0.5226 S   0  0  0  0  0  0  0  0  0  0  0  0
    8.8779   -0.4099    0.7165 C   0  0  1  0  0  0  0  0  0  0  0  0
    8.7688   -1.0503    1.5917 H   0  0  0  0  0  0  0  0  0  0  0  0
    9.0677   -1.2834   -0.5347 C   0  0  0  0  0  0  0  0  0  0  0  0
   10.4959   -1.8975   -0.4846 C   0  0  0  0  0  0  0  0  0  0  0  0
   11.4625   -0.4534    0.1280 S   0  0  0  0  0  0  0  0  0  0  0  0
   12.3575   -0.8922    1.1407 O   0  0  0  0  0  0  0  0  0  0  0  0
   11.9673    0.2709   -0.9855 O   0  0  0  0  0  0  0  0  0  0  0  0
   10.1057    0.5134    0.9051 C   0  0  0  0  0  0  0  0  0  0  0  0
   -0.9495    1.8301   -0.2455 H   0  0  0  0  0  0  0  0  0  0  0  0
    1.1697    3.0812   -0.3696 H   0  0  0  0  0  0  0  0  0  0  0  0
    3.5875   -1.5538    0.3577 H   0  0  0  0  0  0  0  0  0  0  0  0
    6.0303   -1.1676    1.4284 H   0  0  0  0  0  0  0  0  0  0  0  0
    6.1769   -1.2904   -0.3413 H   0  0  0  0  0  0  0  0  0  0  0  0
    8.3244   -2.0805   -0.5434 H   0  0  0  0  0  0  0  0  0  0  0  0
    8.9614   -0.6715   -1.4305 H   0  0  0  0  0  0  0  0  0  0  0  0
   10.5427   -2.7297    0.2178 H   0  0  0  0  0  0  0  0  0  0  0  0
   10.8289   -2.2025   -1.4766 H   0  0  0  0  0  0  0  0  0  0  0  0
    9.9600    1.4610    0.3866 H   0  0  0  0  0  0  0  0  0  0  0  0
   10.3066    0.6778    1.9638 H   0  0  0  0  0  0  0  0  0  0  0  0
  1  6  2  0  0  0  0
  1  2  1  0  0  0  0
  1 23  1  0  0  0  0
  2  3  2  0  0  0  0
  2 24  1  0  0  0  0
  3  4  1  0  0  0  0
  4  5  2  0  0  0  0
  4 10  1  0  0  0  0
  5  6  1  0  0  0  0
  5  7  1  0  0  0  0
  7  8  2  0  0  0  0
  7  9  1  0  0  0  0
 10 11  1  0  0  0  0
 10 25  1  0  0  0  0
 11 12  2  0  0  0  0
 11 13  1  0  0  0  0
 13 14  1  0  0  0  0
 13 26  1  0  0  0  0
 13 27  1  0  0  0  0
 14 15  1  0  0  0  0
 15 16  1  1  0  0  0
 15 22  1  0  0  0  0
 15 17  1  0  0  0  0
 17 18  1  0  0  0  0
 17 28  1  0  0  0  0
 17 29  1  0  0  0  0
 18 19  1  0  0  0  0
 18 30  1  0  0  0  0
 18 31  1  0  0  0  0
 19 20  2  0  0  0  0
 19 21  2  0  0  0  0
 19 22  1  0  0  0  0
 22 32  1  0  0  0  0
 22 33  1  0  0  0  0
M  END
$$$$
ZINC13022680
 OpenBabel01252620473D

 50 52  0  0  0  0  0  0  0  0999 V2000
   -5.2415    7.0131    8.8835 C   0  0  0  0  0  0  0  0  0  0  0  0
   -5.4288    5.4946    8.8798 C   0  0  0  0  0  0  0  0  0  0  0  0
   -4.1500    4.8569    8.8716 O   0  0  0  0  0  0  0  0  0  0  0  0
   -4.1382    3.5079    8.8675 C   0  0  0  0  0  0  0  0  0  0  0  0
   -5.1865    2.8905    8.8707 O   0  0  0  0  0  0  0  0  0  0  0  0
   -2.8655    2.7878    8.8590 C   0  0  0  0  0  0  0  0  0  0  0  0
   -2.1992    2.4047   10.0906 C   0  0  0  0  0  0  0  0  0  0  0  0
   -1.0170    1.7444    9.9644 C   0  0  0  0  0  0  0  0  0  0  0  0
   -0.7991    1.6279    8.2012 S   0  0  0  0  0  0  0  0  0  0  0  0
   -2.2373    2.4332    7.6726 C   0  0  0  0  0  0  0  0  0  0  0  0
   -2.6584    2.6724    6.3743 N   0  0  0  0  0  0  0  0  0  0  0  0
   -1.9083    2.2557    5.3350 C   0  0  0  0  0  0  0  0  0  0  0  0
   -0.8648    1.6714    5.5360 O   0  0  0  0  0  0  0  0  0  0  0  0
   -2.3664    2.5159    3.9231 C   0  0  0  0  0  0  0  0  0  0  0  0
   -1.1537    1.8407    2.7613 S   0  0  0  0  0  0  0  0  0  0  0  0
   -1.9191    2.2732    1.2343 C   0  0  0  0  0  0  0  0  0  0  0  0
   -1.2994    1.9299    0.0187 C   0  0  0  0  0  0  0  0  0  0  0  0
   -1.9246    2.2897   -1.1812 C   0  0  0  0  0  0  0  0  0  0  0  0
   -3.1332    2.9600   -1.1175 C   0  0  0  0  0  0  0  0  0  0  0  0
   -3.6809    3.2629    0.1167 C   0  0  0  0  0  0  0  0  0  0  0  0
   -3.0751    2.9204    1.2364 N   0  0  0  0  0  0  0  0  0  0  0  0
   -4.9950    3.9978    0.1820 C   0  0  0  0  0  0  0  0  0  0  0  0
   -1.2989    1.9508   -2.5096 C   0  0  0  0  0  0  0  0  0  0  0  0
   -0.0144    1.2111    0.0087 C   0  0  0  0  0  0  0  0  0  0  0  0
    0.0021   -0.0041    0.0020 O   0  0  0  0  0  0  0  0  0  0  0  0
   -2.7729    2.7219   11.4139 C   0  0  0  0  0  0  0  0  0  0  0  0
   -2.9466    1.8456   12.4395 C   0  0  0  0  0  0  0  0  0  0  0  0
   -3.5190    2.5734   13.5030 C   0  0  0  0  0  0  0  0  0  0  0  0
   -3.6723    3.8414   13.0759 C   0  0  0  0  0  0  0  0  0  0  0  0
   -3.2204    3.9279   11.8128 O   0  0  0  0  0  0  0  0  0  0  0  0
   -4.6827    7.3081    9.7716 H   0  0  0  0  0  0  0  0  0  0  0  0
   -4.6914    7.3135    7.9917 H   0  0  0  0  0  0  0  0  0  0  0  0
   -6.2169    7.4995    8.8898 H   0  0  0  0  0  0  0  0  0  0  0  0
   -5.9876    5.1996    7.9917 H   0  0  0  0  0  0  0  0  0  0  0  0
   -5.9788    5.1942    9.7716 H   0  0  0  0  0  0  0  0  0  0  0  0
   -0.3669    1.3791   10.7456 H   0  0  0  0  0  0  0  0  0  0  0  0
   -3.4931    3.1398    6.2136 H   0  0  0  0  0  0  0  0  0  0  0  0
   -2.4627    3.5900    3.7644 H   0  0  0  0  0  0  0  0  0  0  0  0
   -3.3317    2.0366    3.7601 H   0  0  0  0  0  0  0  0  0  0  0  0
   -3.6434    3.2488   -2.0246 H   0  0  0  0  0  0  0  0  0  0  0  0
   -4.8101    5.0718    0.2007 H   0  0  0  0  0  0  0  0  0  0  0  0
   -5.5951    3.7476   -0.6928 H   0  0  0  0  0  0  0  0  0  0  0  0
   -5.5302    3.7055    1.0854 H   0  0  0  0  0  0  0  0  0  0  0  0
   -1.6497    0.9722   -2.8374 H   0  0  0  0  0  0  0  0  0  0  0  0
   -1.5803    2.7032   -3.2463 H   0  0  0  0  0  0  0  0  0  0  0  0
   -0.2140    1.9318   -2.4059 H   0  0  0  0  0  0  0  0  0  0  0  0
   -2.6930    0.7958   12.4401 H   0  0  0  0  0  0  0  0  0  0  0  0
   -3.7872    2.1863   14.4749 H   0  0  0  0  0  0  0  0  0  0  0  0
   -4.0886    4.6540   13.6526 H   0  0  0  0  0  0  0  0  0  0  0  0
    1.1435    1.9008    0.0013 O   0  0  0  0  0  1  0  0  0  0  0  0
  1  2  1  0  0  0  0
  1 31  1  0  0  0  0
  1 32  1  0  0  0  0
  1 33  1  0  0  0  0
  2  3  1  0  0  0  0
  2 34  1  0  0  0  0
  2 35  1  0  0  0  0
  3  4  1  0  0  0  0
  4  5  2  0  0  0  0
  4  6  1  0  0  0  0
  6 10  2  0  0  0  0
  6  7  1  0  0  0  0
  7  8  2  0  0  0  0
  7 26  1  0  0  0  0
  8  9  1  0  0  0  0
  8 36  1  0  0  0  0
  9 10  1  0  0  0  0
 10 11  1  0  0  0  0
 11 12  1  0  0  0  0
 11 37  1  0  0  0  0
 12 13  2  0  0  0  0
 12 14  1  0  0  0  0
 14 15  1  0  0  0  0
 14 38  1  0  0  0  0
 14 39  1  0  0  0  0
 15 16  1  0  0  0  0
 16 21  2  0  0  0  0
 16 17  1  0  0  0  0
 17 18  2  0  0  0  0
 17 24  1  0  0  0  0
 18 19  1  0  0  0  0
 18 23  1  0  0  0  0
 19 20  2  0  0  0  0
 19 40  1  0  0  0  0
 20 21  1  0  0  0  0
 20 22  1  0  0  0  0
 22 41  1  0  0  0  0
 22 42  1  0  0  0  0
 22 43  1  0  0  0  0
 23 44  1  0  0  0  0
 23 45  1  0  0  0  0
 23 46  1  0  0  0  0
 24 25  2  0  0  0  0
 24 50  1  0  0  0  0
 26 30  1  0  0  0  0
 26 27  2  0  0  0  0
 27 28  1  0  0  0  0
 27 47  1  0  0  0  0
 28 29  2  0  0  0  0
 28 48  1  0  0  0  0
 29 30  1  0  0  0  0
 29 49  1  0  0  0  0
M  END
$$$$
ZINC46541687
 OpenBabel01252620473D

 46 48  0  0  0  0  0  0  0  0999 V2000
   -4.7730   -6.0361    2.4040 C   0  0  0  0  0  0  0  0  0  0  0  0
   -3.5568   -5.5874    1.8027 O   0  0  0  0  0  0  0  0  0  0  0  0
   -3.5774   -4.3710    1.2077 C   0  0  0  0  0  0  0  0  0  0  0  0
   -2.4169   -3.8752    0.5937 C   0  0  0  0  0  0  0  0  0  0  0  0
   -2.4616   -2.6157   -0.0149 C   0  0  0  0  0  0  0  0  0  0  0  0
   -3.6532   -1.9129    0.0161 C   0  0  0  0  0  0  0  0  0  0  0  0
   -4.7548   -2.4687    0.6411 C   0  0  0  0  0  0  0  0  0  0  0  0
   -4.6920   -3.6601    1.2040 N   0  0  0  0  0  0  0  0  0  0  0  0
   -1.1725   -4.6670    0.5904 C   0  0  0  0  0  0  0  0  0  0  0  0
   -1.1458   -5.7599    1.1228 O   0  0  0  0  0  0  0  0  0  0  0  0
   -0.0650   -4.1792   -0.0029 N   0  0  0  0  0  0  0  0  0  0  0  0
    1.1398   -4.8849    0.0773 C   0  0  0  0  0  0  0  0  0  0  0  0
    2.3438   -4.1984    0.1703 C   0  0  0  0  0  0  0  0  0  0  0  0
    3.5315   -4.8982    0.2498 C   0  0  0  0  0  0  0  0  0  0  0  0
    3.5233   -6.2812    0.2363 C   0  0  0  0  0  0  0  0  0  0  0  0
    2.3266   -6.9675    0.1438 C   0  0  0  0  0  0  0  0  0  0  0  0
    1.1346   -6.2736    0.0698 C   0  0  0  0  0  0  0  0  0  0  0  0
    2.3217   -8.7294    0.1266 S   0  0  0  0  0  0  0  0  0  0  0  0
    1.1179   -9.1259   -0.5159 O   0  0  0  0  0  0  0  0  0  0  0  0
    3.6022   -9.1346   -0.3377 O   0  0  0  0  0  0  0  0  0  0  0  0
    2.2071   -9.2342    1.6996 N   0  0  0  0  0  2  0  0  0  0  0  0
    2.1812  -10.5991    1.9949 C   0  0  0  0  0  0  0  0  0  0  0  0
    2.2573  -11.5347    0.9706 C   0  0  0  0  0  0  0  0  0  0  0  0
    2.2318  -12.8832    1.2661 C   0  0  0  0  0  0  0  0  0  0  0  0
    2.1303  -13.3031    2.5800 C   0  0  0  0  0  0  0  0  0  0  0  0
    2.0540  -12.3747    3.6018 C   0  0  0  0  0  0  0  0  0  0  0  0
    2.0851  -11.0242    3.3137 C   0  0  0  0  0  0  0  0  0  0  0  0
    1.9425  -12.8369    5.0318 C   0  0  0  0  0  0  0  0  0  0  0  0
    1.9358  -14.2353    5.0708 F   0  0  0  0  0  0  0  0  0  0  0  0
    3.0330  -12.3552    5.7640 F   0  0  0  0  0  0  0  0  0  0  0  0
    0.7552  -12.3492    5.5883 F   0  0  0  0  0  0  0  0  0  0  0  0
   -4.6191   -7.0217    2.8433 H   0  0  0  0  0  0  0  0  0  0  0  0
   -5.0740   -5.3345    3.1820 H   0  0  0  0  0  0  0  0  0  0  0  0
   -5.5536   -6.0942    1.6454 H   0  0  0  0  0  0  0  0  0  0  0  0
   -1.5877   -2.2025   -0.4966 H   0  0  0  0  0  0  0  0  0  0  0  0
   -3.7223   -0.9380   -0.4435 H   0  0  0  0  0  0  0  0  0  0  0  0
   -5.6843   -1.9194    0.6648 H   0  0  0  0  0  0  0  0  0  0  0  0
   -0.1035   -3.3386   -0.4854 H   0  0  0  0  0  0  0  0  0  0  0  0
    2.3509   -3.1184    0.1801 H   0  0  0  0  0  0  0  0  0  0  0  0
    4.4679   -4.3650    0.3221 H   0  0  0  0  0  0  0  0  0  0  0  0
    4.4537   -6.8261    0.2979 H   0  0  0  0  0  0  0  0  0  0  0  0
    0.1999   -6.8103    0.0021 H   0  0  0  0  0  0  0  0  0  0  0  0
    2.3358  -11.2075   -0.0556 H   0  0  0  0  0  0  0  0  0  0  0  0
    2.2909  -13.6110    0.4703 H   0  0  0  0  0  0  0  0  0  0  0  0
    2.1103  -14.3585    2.8084 H   0  0  0  0  0  0  0  0  0  0  0  0
    2.0303  -10.2996    4.1126 H   0  0  0  0  0  0  0  0  0  0  0  0
  1  2  1  0  0  0  0
  1 32  1  0  0  0  0
  1 33  1  0  0  0  0
  1 34  1  0  0  0  0
  2  3  1  0  0  0  0
  3  8  2  0  0  0  0
  3  4  1  0  0  0  0
  4  5  2  0  0  0  0
  4  9  1  0  0  0  0
  5  6  1  0  0  0  0
  5 35  1  0  0  0  0
  6  7  2  0  0  0  0
  6 36  1  0  0  0  0
  7  8  1  0  0  0  0
  7 37  1  0  0  0  0
  9 10  2  0  0  0  0
  9 11  1  0  0  0  0
 11 12  1  0  0  0  0
 11 38  1  0  0  0  0
 12 17  2  0  0  0  0
 12 13  1  0  0  0  0
 13 14  2  0  0  0  0
 13 39  1  0  0  0  0
 14 15  1  0  0  0  0
 14 40  1  0  0  0  0
 15 16  2  0  0  0  0
 15 41  1  0  0  0  0
 16 17  1  0  0  0  0
 16 18  1  0  0  0  0
 17 42  1  0  0  0  0
 18 19  2  0  0  0  0
 18 20  2  0  0  0  0
 18 21  1  0  0  0  0
 21 22  1  0  0  0  0
 22 27  2  0  0  0  0
 22 23  1  0  0  0  0
 23 24  2  0  0  0  0
 23 43  1  0  0  0  0
 24 25  1  0  0  0  0
 24 44  1  0  0  0  0
 25 26  2  0  0  0  0
 25 45  1  0  0  0  0
 26 27  1  0  0  0  0
 26 28  1  0  0  0  0
 27 46  1  0  0  0  0
 28 29  1  0  0  0  0
 28 30  1  0  0  0  0
 28 31  1  0  0  0  0
M  END
$$$$
ZINC16926746
 OpenBabel01252620473D

 43 45  0  0  0  0  0  0  0  0999 V2000
   -3.7064    0.2719   -2.8707 C   0  0  0  0  0  0  0  0  0  0  0  0
   -2.3019    0.6159   -2.3707 C   0  0  0  0  0  0  0  0  0  0  0  0
   -2.3903    1.6124   -1.3504 O   0  0  0  0  0  0  0  0  0  0  0  0
   -1.2222    2.0332   -0.7954 C   0  0  0  0  0  0  0  0  0  0  0  0
   -0.0229    1.4991   -1.2236 C   0  0  0  0  0  0  0  0  0  0  0  0
    1.1782    1.9394   -0.6542 C   0  0  0  0  0  0  0  0  0  0  0  0
    1.1555    2.9146    0.3503 C   0  0  0  0  0  0  0  0  0  0  0  0
   -0.0462    3.4373    0.7749 C   0  0  0  0  0  0  0  0  0  0  0  0
   -1.2365    2.9998    0.2094 C   0  0  0  0  0  0  0  0  0  0  0  0
   -2.4183    3.5193    0.6325 O   0  0  0  0  0  0  0  0  0  0  0  0
    2.4574    1.3798   -1.1088 C   0  0  0  0  0  0  0  0  0  0  0  0
    3.6258    1.9320   -0.6930 C   0  0  0  0  0  0  0  0  0  0  0  0
    5.0091    1.4436   -0.8590 C   0  0  0  0  0  0  0  0  0  0  0  0
    5.2541    0.4021   -1.4393 O   0  0  0  0  0  0  0  0  0  0  0  0
    5.9689    2.1971   -0.3492 N   0  0  0  0  0  0  0  0  0  0  0  0
    5.6926    3.3471    0.2988 C   0  0  0  0  0  0  0  0  0  0  0  0
    6.7847    4.4458    1.0275 S   0  0  0  0  0  0  0  0  0  0  0  0
    3.9118    3.4463    0.2129 S   0  0  0  0  0  0  0  0  0  0  0  0
    7.3033    1.7881   -0.4799 C   0  0  0  0  0  0  0  0  0  0  0  0
    7.8577    0.9274    0.4556 C   0  0  0  0  0  0  0  0  0  0  0  0
    9.1852    0.5139    0.3260 C   0  0  0  0  0  0  0  0  0  0  0  0
    9.9564    0.9760   -0.7389 C   0  0  0  0  0  0  0  0  0  0  0  0
    9.3974    1.8451   -1.6741 C   0  0  0  0  0  0  0  0  0  0  0  0
    8.0675    2.2496   -1.5411 C   0  0  0  0  0  0  0  0  0  0  0  0
   10.2107    2.3374   -2.8052 C   0  0  0  0  0  0  0  0  0  0  0  0
    9.7226    3.0945   -3.6200 O   0  0  0  0  0  0  0  0  0  0  0  0
    9.7733   -0.4076    1.3201 C   0  0  0  0  0  0  0  0  0  0  0  0
    9.1005   -0.8099    2.2480 O   0  0  0  0  0  0  0  0  0  0  0  0
   -3.6390   -0.4882   -3.6490 H   0  0  0  0  0  0  0  0  0  0  0  0
   -4.3040   -0.1084   -2.0423 H   0  0  0  0  0  0  0  0  0  0  0  0
   -4.1768    1.1673   -3.2771 H   0  0  0  0  0  0  0  0  0  0  0  0
   -1.7043    0.9962   -3.1992 H   0  0  0  0  0  0  0  0  0  0  0  0
   -1.8315   -0.2795   -1.9644 H   0  0  0  0  0  0  0  0  0  0  0  0
   -0.0111    0.7471   -1.9987 H   0  0  0  0  0  0  0  0  0  0  0  0
    2.0797    3.2566    0.7922 H   0  0  0  0  0  0  0  0  0  0  0  0
   -0.0626    4.1897    1.5494 H   0  0  0  0  0  0  0  0  0  0  0  0
   -2.7018    4.3028    0.1417 H   0  0  0  0  0  0  0  0  0  0  0  0
    2.4688    0.5290   -1.7738 H   0  0  0  0  0  0  0  0  0  0  0  0
    7.2609    0.5735    1.2832 H   0  0  0  0  0  0  0  0  0  0  0  0
   10.9846    0.6612   -0.8394 H   0  0  0  0  0  0  0  0  0  0  0  0
    7.6336    2.9231   -2.2654 H   0  0  0  0  0  0  0  0  0  0  0  0
   11.4936    1.9467   -2.9326 O   0  0  0  0  0  1  0  0  0  0  0  0
   11.0556   -0.8015    1.1975 O   0  0  0  0  0  1  0  0  0  0  0  0
  1  2  1  0  0  0  0
  1 29  1  0  0  0  0
  1 30  1  0  0  0  0
  1 31  1  0  0  0  0
  2  3  1  0  0  0  0
  2 32  1  0  0  0  0
  2 33  1  0  0  0  0
  3  4  1  0  0  0  0
  4  9  2  0  0  0  0
  4  5  1  0  0  0  0
  5  6  2  0  0  0  0
  5 34  1  0  0  0  0
  6  7  1  0  0  0  0
  6 11  1  0  0  0  0
  7  8  2  0  0  0  0
  7 35  1  0  0  0  0
  8  9  1  0  0  0  0
  8 36  1  0  0  0  0
  9 10  1  0  0  0  0
 10 37  1  0  0  0  0
 11 12  2  0  0  0  0
 11 38  1  0  0  0  0
 12 18  1  0  0  0  0
 12 13  1  0  0  0  0
 13 14  2  0  0  0  0
 13 15  1  0  0  0  0
 15 16  1  0  0  0  0
 15 19  1  0  0  0  0
 16 17  2  0  0  0  0
 16 18  1  0  0  0  0
 19 24  2  0  0  0  0
 19 20  1  0  0  0  0
 20 21  2  0  0  0  0
 20 39  1  0  0  0  0
 21 22  1  0  0  0  0
 21 27  1  0  0  0  0
 22 23  2  0  0  0  0
 22 40  1  0  0  0  0
 23 24  1  0  0  0  0
 23 25  1  0  0  0  0
 24 41  1  0  0  0  0
 25 26  2  0  0  0  0
 25 42  1  0  0  0  0
 27 28  2  0  0  0  0
 27 43  1  0  0  0  0
M  END
$$$$
ZINC13342940
 OpenBabel01252620473D

 52 54  0  0  0  0  0  0  0  0999 V2000
   -0.0178    1.4648    0.0101 C   0  0  0  0  0  0  0  0  0  0  0  0
    0.0021   -0.0041    0.0020 N   0  0  0  0  0  0  0  0  0  0  0  0
    0.5920   -0.5157   -1.2422 C   0  0  0  0  0  0  0  0  0  0  0  0
    0.4303   -2.0387   -1.2918 C   0  0  0  0  0  0  0  0  0  0  0  0
    0.9912   -2.6085   -0.0572 N   0  0  0  0  0  0  0  0  0  0  0  0
    0.5491   -2.0510    1.2300 C   0  0  0  0  0  0  0  0  0  0  0  0
    0.7062   -0.5275    1.1802 C   0  0  0  0  0  0  0  0  0  0  0  0
    2.0917   -3.8446   -0.1151 S   0  0  0  0  0  0  0  0  0  0  0  0
    2.0092   -4.5205    1.1321 O   0  0  0  0  0  0  0  0  0  0  0  0
    1.8923   -4.5081   -1.3558 O   0  0  0  0  0  0  0  0  0  0  0  0
    3.6932   -3.1135   -0.1867 C   0  0  0  0  0  0  0  0  0  0  0  0
    4.2720   -2.8111   -1.4125 C   0  0  0  0  0  0  0  0  0  0  0  0
    5.5304   -2.2375   -1.4247 C   0  0  0  0  0  0  0  0  0  0  0  0
    6.1704   -1.9840   -0.2150 C   0  0  0  0  0  0  0  0  0  0  0  0
    5.5846   -2.2871    0.9338 N   0  0  0  0  0  0  0  0  0  0  0  0
    4.3828   -2.8301    0.9753 C   0  0  0  0  0  0  0  0  0  0  0  0
    7.4350   -1.4085   -0.2123 N   0  0  0  0  0  0  0  0  0  0  0  0
    8.0847   -1.1508    1.0018 N   0  0  0  0  0  0  0  0  0  0  0  0
    9.2663   -0.6131    1.0043 C   0  0  0  0  0  0  0  0  0  0  0  0
    9.9500   -0.3418    2.2821 C   0  0  0  0  0  0  0  0  0  0  0  0
    9.3307   -0.6680    3.4914 C   0  0  0  0  0  0  0  0  0  0  0  0
    9.9739   -0.4131    4.6833 C   0  0  0  0  0  0  0  0  0  0  0  0
   11.2355    0.1675    4.6837 C   0  0  0  0  0  0  0  0  0  0  0  0
   11.8550    0.4935    3.4842 C   0  0  0  0  0  0  0  0  0  0  0  0
   11.2219    0.2369    2.2872 C   0  0  0  0  0  0  0  0  0  0  0  0
   11.8655    0.4179    5.8612 O   0  0  0  0  0  0  0  0  0  0  0  0
   13.1610    1.0166    5.7894 C   0  0  0  0  0  0  0  0  0  0  0  0
   13.6995    1.2175    7.1825 C   0  0  0  0  0  0  0  0  0  0  0  0
   13.0353    0.8795    8.1474 O   0  0  0  0  0  0  0  0  0  0  0  0
   14.7992    1.7182    7.3447 O   0  0  0  0  0  1  0  0  0  0  0  0
    1.0047    1.8421    0.0024 H   0  0  0  0  0  0  0  0  0  0  0  0
   -0.5450    1.8259   -0.8730 H   0  0  0  0  0  0  0  0  0  0  0  0
   -0.5280    1.8163    0.9069 H   0  0  0  0  0  0  0  0  0  0  0  0
    0.0842   -0.0681   -2.0965 H   0  0  0  0  0  0  0  0  0  0  0  0
    1.6514   -0.2612   -1.2740 H   0  0  0  0  0  0  0  0  0  0  0  0
   -0.6272   -2.2925   -1.3646 H   0  0  0  0  0  0  0  0  0  0  0  0
    0.9653   -2.4359   -2.1544 H   0  0  0  0  0  0  0  0  0  0  0  0
   -0.4970   -2.3059    1.3995 H   0  0  0  0  0  0  0  0  0  0  0  0
    1.1627   -2.4563    2.0346 H   0  0  0  0  0  0  0  0  0  0  0  0
    1.7640   -0.2728    1.1147 H   0  0  0  0  0  0  0  0  0  0  0  0
    0.2811   -0.0884    2.0828 H   0  0  0  0  0  0  0  0  0  0  0  0
    3.7513   -3.0196   -2.3354 H   0  0  0  0  0  0  0  0  0  0  0  0
    6.0100   -1.9899   -2.3601 H   0  0  0  0  0  0  0  0  0  0  0  0
    3.9344   -3.0595    1.9306 H   0  0  0  0  0  0  0  0  0  0  0  0
    7.8680   -1.1852   -1.0511 H   0  0  0  0  0  0  0  0  0  0  0  0
    9.7484   -0.3644    0.0704 H   0  0  0  0  0  0  0  0  0  0  0  0
    8.3493   -1.1189    3.4921 H   0  0  0  0  0  0  0  0  0  0  0  0
    9.4960   -0.6648    5.6185 H   0  0  0  0  0  0  0  0  0  0  0  0
   12.8361    0.9448    3.4893 H   0  0  0  0  0  0  0  0  0  0  0  0
   11.7062    0.4866    1.3548 H   0  0  0  0  0  0  0  0  0  0  0  0
   13.8323    0.3641    5.2311 H   0  0  0  0  0  0  0  0  0  0  0  0
   13.0885    1.9803    5.2854 H   0  0  0  0  0  0  0  0  0  0  0  0
  1  2  1  0  0  0  0
  1 31  1  0  0  0  0
  1 32  1  0  0  0  0
  1 33  1  0  0  0  0
  2  7  1  0  0  0  0
  2  3  1  0  0  0  0
  3  4  1  0  0  0  0
  3 34  1  0  0  0  0
  3 35  1  0  0  0  0
  4  5  1  0  0  0  0
  4 36  1  0  0  0  0
  4 37  1  0  0  0  0
  5  6  1  0  0  0  0
  5  8  1  0  0  0  0
  6  7  1  0  0  0  0
  6 38  1  0  0  0  0
  6 39  1  0  0  0  0
  7 40  1  0  0  0  0
  7 41  1  0  0  0  0
  8  9  2  0  0  0  0
  8 10  2  0  0  0  0
  8 11  1  0  0  0  0
 11 16  2  0  0  0  0
 11 12  1  0  0  0  0
 12 13  2  0  0  0  0
 12 42  1  0  0  0  0
 13 14  1  0  0  0  0
 13 43  1  0  0  0  0
 14 15  2  0  0  0  0
 14 17  1  0  0  0  0
 15 16  1  0  0  0  0
 16 44  1  0  0  0  0
 17 18  1  0  0  0  0
 17 45  1  0  0  0  0
 18 19  2  0  0  0  0
 19 20  1  0  0  0  0
 19 46  1  0  0  0  0
 20 25  2  0  0  0  0
 20 21  1  0  0  0  0
 21 22  2  0  0  0  0
 21 47  1  0  0  0  0
 22 23  1  0  0  0  0
 22 48  1  0  0  0  0
 23 24  2  0  0  0  0
 23 26  1  0  0  0  0
 24 25  1  0  0  0  0
 24 49  1  0  0  0  0
 25 50  1  0  0  0  0
 26 27  1  0  0  0  0
 27 28  1  0  0  0  0
 27 51  1  0  0  0  0
 27 52  1  0  0  0  0
 28 29  2  0  0  0  0
 28 30  1  0  0  0  0
M  END
$$$$
ZINC13394349
 OpenBabel01252620473D

 51 53  0  0  0  0  0  0  0  0999 V2000
    1.1723    4.7290    0.2544 C   0  0  0  0  0  0  0  0  0  0  0  0
    1.6034    3.2010    1.1319 S   0  0  0  0  0  0  0  0  0  0  0  0
    0.7607    3.0320    2.2635 O   0  0  0  0  0  0  0  0  0  0  0  0
    3.0145    3.0896    1.2565 O   0  0  0  0  0  0  0  0  0  0  0  0
    1.1728    1.9808    0.0985 N   0  0  0  0  0  0  0  0  0  0  0  0
   -0.1108    1.2852    0.2601 C   0  0  0  0  0  0  0  0  0  0  0  0
    0.1497   -0.2201    0.1175 C   0  0  0  0  0  0  0  0  0  0  0  0
    0.6608   -0.5000   -1.2957 C   0  0  0  0  0  0  0  0  0  0  0  0
    1.8131    0.4112   -1.6289 C   0  0  0  0  0  0  0  0  0  0  0  0
    2.0225    1.5989   -0.9378 C   0  0  0  0  0  0  0  0  0  0  0  0
    3.0947    2.4250   -1.2705 C   0  0  0  0  0  0  0  0  0  0  0  0
    3.9546    2.0697   -2.2835 C   0  0  0  0  0  0  0  0  0  0  0  0
    3.7500    0.8753   -2.9804 C   0  0  0  0  0  0  0  0  0  0  0  0
    2.6737    0.0506   -2.6453 C   0  0  0  0  0  0  0  0  0  0  0  0
    4.6683    0.4871   -4.0673 C   0  0  0  0  0  0  0  0  0  0  0  0
    4.4888   -0.5520   -4.6729 O   0  0  0  0  0  0  0  0  0  0  0  0
    5.7064    1.2841   -4.3894 N   0  0  0  0  0  0  0  0  0  0  0  0
    6.6324    0.8712   -5.3526 C   0  0  0  0  0  0  0  0  0  0  0  0
    7.9730    1.2087   -5.2189 C   0  0  0  0  0  0  0  0  0  0  0  0
    8.8858    0.7949   -6.1692 C   0  0  0  0  0  0  0  0  0  0  0  0
    8.4643    0.0552   -7.2589 C   0  0  0  0  0  0  0  0  0  0  0  0
    7.1294   -0.2780   -7.3978 C   0  0  0  0  0  0  0  0  0  0  0  0
    6.2125    0.1278   -6.4481 C   0  0  0  0  0  0  0  0  0  0  0  0
    9.6309   -0.4645   -8.4729 S   0  0  0  0  0  0  0  0  0  0  0  0
   10.8990   -0.4916   -7.8322 O   0  0  0  0  0  0  0  0  0  0  0  0
    9.0740   -1.6069   -9.1085 O   0  0  0  0  0  0  0  0  0  0  0  0
    9.7062    0.7264   -9.6211 N   0  0  0  0  0  0  0  0  0  0  0  0
   10.2179    2.0530   -9.2681 C   0  0  0  0  0  0  0  0  0  0  0  0
   10.5288    2.8226  -10.5259 C   0  0  0  0  0  0  0  0  0  0  0  0
   10.3420    2.3150  -11.6064 O   0  0  0  0  0  0  0  0  0  0  0  0
    0.1029    4.7376    0.0437 H   0  0  0  0  0  0  0  0  0  0  0  0
    1.4274    5.5884    0.8745 H   0  0  0  0  0  0  0  0  0  0  0  0
    1.7276    4.7791   -0.6822 H   0  0  0  0  0  0  0  0  0  0  0  0
   -0.8082    1.6137   -0.5105 H   0  0  0  0  0  0  0  0  0  0  0  0
   -0.5235    1.4965    1.2466 H   0  0  0  0  0  0  0  0  0  0  0  0
    0.8989   -0.5317    0.8453 H   0  0  0  0  0  0  0  0  0  0  0  0
   -0.7769   -0.7688    0.2862 H   0  0  0  0  0  0  0  0  0  0  0  0
    0.9909   -1.5368   -1.3608 H   0  0  0  0  0  0  0  0  0  0  0  0
   -0.1462   -0.3364   -2.0098 H   0  0  0  0  0  0  0  0  0  0  0  0
    3.2506    3.3477   -0.7312 H   0  0  0  0  0  0  0  0  0  0  0  0
    4.7850    2.7111   -2.5393 H   0  0  0  0  0  0  0  0  0  0  0  0
    2.5144   -0.8720   -3.1836 H   0  0  0  0  0  0  0  0  0  0  0  0
    5.8112    2.1441   -3.9531 H   0  0  0  0  0  0  0  0  0  0  0  0
    8.3021    1.7902   -4.3704 H   0  0  0  0  0  0  0  0  0  0  0  0
    9.9291    1.0532   -6.0635 H   0  0  0  0  0  0  0  0  0  0  0  0
    6.8036   -0.8564   -8.2497 H   0  0  0  0  0  0  0  0  0  0  0  0
    5.1701   -0.1330   -6.5569 H   0  0  0  0  0  0  0  0  0  0  0  0
    9.4114    0.5457  -10.5274 H   0  0  0  0  0  0  0  0  0  0  0  0
    9.4662    2.5903   -8.6898 H   0  0  0  0  0  0  0  0  0  0  0  0
   11.1254    1.9460   -8.6739 H   0  0  0  0  0  0  0  0  0  0  0  0
   11.0131    4.0719  -10.4460 O   0  0  0  0  0  1  0  0  0  0  0  0
  1  2  1  0  0  0  0
  1 31  1  0  0  0  0
  1 32  1  0  0  0  0
  1 33  1  0  0  0  0
  2  3  2  0  0  0  0
  2  4  2  0  0  0  0
  2  5  1  0  0  0  0
  5 10  1  0  0  0  0
  5  6  1  0  0  0  0
  6  7  1  0  0  0  0
  6 34  1  0  0  0  0
  6 35  1  0  0  0  0
  7  8  1  0  0  0  0
  7 36  1  0  0  0  0
  7 37  1  0  0  0  0
  8  9  1  0  0  0  0
  8 38  1  0  0  0  0
  8 39  1  0  0  0  0
  9 14  2  0  0  0  0
  9 10  1  0  0  0  0
 10 11  2  0  0  0  0
 11 12  1  0  0  0  0
 11 40  1  0  0  0  0
 12 13  2  0  0  0  0
 12 41  1  0  0  0  0
 13 14  1  0  0  0  0
 13 15  1  0  0  0  0
 14 42  1  0  0  0  0
 15 16  2  0  0  0  0
 15 17  1  0  0  0  0
 17 18  1  0  0  0  0
 17 43  1  0  0  0  0
 18 23  2  0  0  0  0
 18 19  1  0  0  0  0
 19 20  2  0  0  0  0
 19 44  1  0  0  0  0
 20 21  1  0  0  0  0
 20 45  1  0  0  0  0
 21 22  2  0  0  0  0
 21 24  1  0  0  0  0
 22 23  1  0  0  0  0
 22 46  1  0  0  0  0
 23 47  1  0  0  0  0
 24 25  2  0  0  0  0
 24 26  2  0  0  0  0
 24 27  1  0  0  0  0
 27 28  1  0  0  0  0
 27 48  1  0  0  0  0
 28 29  1  0  0  0  0
 28 49  1  0  0  0  0
 28 50  1  0  0  0  0
 29 30  2  0  0  0  0
 29 51  1  0  0  0  0
M  END
$$$$
ZINC13034808
 OpenBabel01252620473D

 51 52  0  0  0  0  0  0  0  0999 V2000
   -0.7142    3.1479    2.0024 C   0  0  0  0  0  0  0  0  0  0  0  0
   -1.4242    3.5405    3.1199 C   0  0  0  0  0  0  0  0  0  0  0  0
   -2.3493    2.6812    3.6931 C   0  0  0  0  0  0  0  0  0  0  0  0
   -2.5637    1.4151    3.1295 C   0  0  0  0  0  0  0  0  0  0  0  0
   -1.8421    1.0331    1.9955 C   0  0  0  0  0  0  0  0  0  0  0  0
   -0.9267    1.9002    1.4394 C   0  0  0  0  0  0  0  0  0  0  0  0
   -0.0172    1.4168    0.0098 S   0  0  0  0  0  0  0  0  0  0  0  0
    0.0021   -0.0041    0.0020 O   0  0  0  0  0  0  0  0  0  0  0  0
    1.1718    2.1948    0.0027 O   0  0  0  0  0  0  0  0  0  0  0  0
   -0.8975    1.8855   -1.3122 N   0  0  0  0  0  0  0  0  0  0  0  0
   -1.9095    1.0708   -2.0004 C   0  0  0  0  0  0  0  0  0  0  0  0
   -2.4438    1.9063   -3.1828 C   0  0  0  0  0  0  0  0  0  0  0  0
   -1.2951    2.9176   -3.4380 C   0  0  0  0  0  0  0  0  0  0  0  0
   -0.7916    3.1863   -1.9978 C   0  0  0  0  0  0  0  0  0  0  0  0
   -3.5448    0.4930    3.7293 C   0  0  0  0  0  0  0  0  0  0  0  0
   -4.1703    0.8289    4.7154 O   0  0  0  0  0  0  0  0  0  0  0  0
   -3.0440    3.0636    4.7936 O   0  0  0  0  0  0  0  0  0  0  0  0
   -2.7723    4.3674    5.3116 C   0  0  0  0  0  0  0  0  0  0  0  0
   -3.6311    4.6148    6.5250 C   0  0  0  0  0  0  0  0  0  0  0  0
   -4.4001    3.7589    6.9084 O   0  0  0  0  0  0  0  0  0  0  0  0
   -3.5446    5.7872    7.1842 N   0  0  0  0  0  0  0  0  0  0  0  0
   -4.3794    6.0277    8.3637 C   0  0  0  0  0  0  0  0  0  0  0  0
   -3.6372    5.5611    9.6176 C   0  0  0  0  0  0  0  0  0  0  0  0
   -4.4761    5.8027   10.8028 C   0  0  0  0  0  0  0  0  0  0  0  0
   -5.1234    5.9892   11.7175 N   0  0  0  0  0  0  0  0  0  0  0  0
   -2.6156    6.8210    6.7211 C   0  0  0  0  0  0  0  0  0  0  0  0
   -3.3251    7.7313    5.7166 C   0  0  0  0  0  0  0  0  0  0  0  0
   -2.3918    8.7701    5.2513 C   0  0  0  0  0  0  0  0  0  0  0  0
   -1.6714    9.5718    4.8922 N   0  0  0  0  0  0  0  0  0  0  0  0
    0.0085    3.8192    1.5624 H   0  0  0  0  0  0  0  0  0  0  0  0
   -1.2557    4.5165    3.5505 H   0  0  0  0  0  0  0  0  0  0  0  0
   -2.0013    0.0597    1.5558 H   0  0  0  0  0  0  0  0  0  0  0  0
   -1.4565    0.1505   -2.3692 H   0  0  0  0  0  0  0  0  0  0  0  0
   -2.7250    0.8367   -1.3161 H   0  0  0  0  0  0  0  0  0  0  0  0
   -3.3616    2.4263   -2.9086 H   0  0  0  0  0  0  0  0  0  0  0  0
   -2.6032    1.2752   -4.0570 H   0  0  0  0  0  0  0  0  0  0  0  0
   -1.6736    3.8313   -3.8963 H   0  0  0  0  0  0  0  0  0  0  0  0
   -0.5106    2.4717   -4.0493 H   0  0  0  0  0  0  0  0  0  0  0  0
   -1.4234    3.9264   -1.5069 H   0  0  0  0  0  0  0  0  0  0  0  0
    0.2451    3.5227   -2.0150 H   0  0  0  0  0  0  0  0  0  0  0  0
   -1.7208    4.4356    5.5907 H   0  0  0  0  0  0  0  0  0  0  0  0
   -2.9953    5.1147    4.5501 H   0  0  0  0  0  0  0  0  0  0  0  0
   -4.5956    7.0929    8.4448 H   0  0  0  0  0  0  0  0  0  0  0  0
   -5.3132    5.4738    8.2670 H   0  0  0  0  0  0  0  0  0  0  0  0
   -3.4210    4.4958    9.5366 H   0  0  0  0  0  0  0  0  0  0  0  0
   -2.7034    6.1150    9.7143 H   0  0  0  0  0  0  0  0  0  0  0  0
   -2.2772    7.4127    7.5716 H   0  0  0  0  0  0  0  0  0  0  0  0
   -1.7575    6.3501    6.2416 H   0  0  0  0  0  0  0  0  0  0  0  0
   -3.6636    7.1396    4.8661 H   0  0  0  0  0  0  0  0  0  0  0  0
   -4.1833    8.2022    6.1961 H   0  0  0  0  0  0  0  0  0  0  0  0
   -3.7480   -0.7224    3.1842 O   0  0  0  0  0  1  0  0  0  0  0  0
  1  6  2  0  0  0  0
  1  2  1  0  0  0  0
  1 30  1  0  0  0  0
  2  3  2  0  0  0  0
  2 31  1  0  0  0  0
  3  4  1  0  0  0  0
  3 17  1  0  0  0  0
  4  5  2  0  0  0  0
  4 15  1  0  0  0  0
  5  6  1  0  0  0  0
  5 32  1  0  0  0  0
  6  7  1  0  0  0  0
  7  8  2  0  0  0  0
  7  9  2  0  0  0  0
  7 10  1  0  0  0  0
 10 14  1  0  0  0  0
 10 11  1  0  0  0  0
 11 12  1  0  0  0  0
 11 33  1  0  0  0  0
 11 34  1  0  0  0  0
 12 13  1  0  0  0  0
 12 35  1  0  0  0  0
 12 36  1  0  0  0  0
 13 14  1  0  0  0  0
 13 37  1  0  0  0  0
 13 38  1  0  0  0  0
 14 39  1  0  0  0  0
 14 40  1  0  0  0  0
 15 16  2  0  0  0  0
 15 51  1  0  0  0  0
 17 18  1  0  0  0  0
 18 19  1  0  0  0  0
 18 41  1  0  0  0  0
 18 42  1  0  0  0  0
 19 20  2  0  0  0  0
 19 21  1  0  0  0  0
 21 22  1  0  0  0  0
 21 26  1  0  0  0  0
 22 23  1  0  0  0  0
 22 43  1  0  0  0  0
 22 44  1  0  0  0  0
 23 24  1  0  0  0  0
 23 45  1  0  0  0  0
 23 46  1  0  0  0  0
 24 25  3  0  0  0  0
 26 27  1  0  0  0  0
 26 47  1  0  0  0  0
 26 48  1  0  0  0  0
 27 28  1  0  0  0  0
 27 49  1  0  0  0  0
 27 50  1  0  0  0  0
 28 29  3  0  0  0  0
M  END
$$$$
ZINC62119242
 OpenBabel01252620473D

 32 33  0  0  1  0  0  0  0  0999 V2000
    0.2165    1.5382    0.1218 C   0  0  0  0  0  0  0  0  0  0  0  0
    1.6329    2.0540   -0.1506 C   0  0  0  0  0  0  0  0  0  0  0  0
    2.1302    1.4791   -1.4795 C   0  0  0  0  0  0  0  0  0  0  0  0
    2.0918    0.0516   -1.4235 O   0  0  0  0  0  0  0  0  0  0  0  0
    0.7851   -0.4893   -1.2181 C   0  0  2  0  0  0  0  0  0  0  0  0
    0.1269   -0.1657   -2.0244 H   0  0  0  0  0  0  0  0  0  0  0  0
    0.2338    0.0066    0.1212 C   0  0  0  0  0  0  0  0  0  0  0  0
    0.8607   -1.9943   -1.2046 C   0  0  0  0  0  0  0  0  0  0  0  0
    1.9397   -2.5470   -1.1684 O   0  0  0  0  0  0  0  0  0  0  0  0
   -0.2707   -2.7262   -1.2325 N   0  0  0  0  0  0  0  0  0  0  0  0
   -1.6320   -2.1935   -1.3897 C   0  0  0  0  0  0  0  0  0  0  0  0
   -2.5977   -3.3973   -1.3914 C   0  0  0  0  0  0  0  0  0  0  0  0
   -1.6797   -4.5786   -1.8030 C   0  0  1  0  0  0  0  0  0  0  0  0
   -1.5597   -4.6212   -2.8856 H   0  0  0  0  0  0  0  0  0  0  0  0
   -0.3477   -4.1938   -1.1170 C   0  0  0  0  0  0  0  0  0  0  0  0
   -2.2084   -5.8849   -1.2692 C   0  0  0  0  0  0  0  0  0  0  0  0
   -3.3064   -6.2856   -1.6162 O   0  0  0  0  0  0  0  0  0  0  0  0
   -1.5381   -6.5412   -0.4904 O   0  0  0  0  0  1  0  0  0  0  0  0
   -0.1223    1.8987    1.0930 H   0  0  0  0  0  0  0  0  0  0  0  0
   -0.4576    1.8956   -0.6567 H   0  0  0  0  0  0  0  0  0  0  0  0
    1.6196    3.1425   -0.2069 H   0  0  0  0  0  0  0  0  0  0  0  0
    2.2967    1.7380    0.6541 H   0  0  0  0  0  0  0  0  0  0  0  0
    1.4895    1.8285   -2.2892 H   0  0  0  0  0  0  0  0  0  0  0  0
    3.1538    1.8085   -1.6577 H   0  0  0  0  0  0  0  0  0  0  0  0
    0.8693   -0.3508    0.9315 H   0  0  0  0  0  0  0  0  0  0  0  0
   -0.7800   -0.3692    0.2594 H   0  0  0  0  0  0  0  0  0  0  0  0
   -1.8686   -1.5296   -0.5583 H   0  0  0  0  0  0  0  0  0  0  0  0
   -1.7119   -1.6529   -2.3328 H   0  0  0  0  0  0  0  0  0  0  0  0
   -3.0128   -3.5600   -0.3968 H   0  0  0  0  0  0  0  0  0  0  0  0
   -3.3924   -3.2532   -2.1233 H   0  0  0  0  0  0  0  0  0  0  0  0
    0.4928   -4.6595   -1.6315 H   0  0  0  0  0  0  0  0  0  0  0  0
   -0.3639   -4.4915   -0.0685 H   0  0  0  0  0  0  0  0  0  0  0  0
  1  7  1  0  0  0  0
  1  2  1  0  0  0  0
  1 19  1  0  0  0  0
  1 20  1  0  0  0  0
  2  3  1  0  0  0  0
  2 21  1  0  0  0  0
  2 22  1  0  0  0  0
  3  4  1  0  0  0  0
  3 23  1  0  0  0  0
  3 24  1  0  0  0  0
  4  5  1  0  0  0  0
  5  6  1  6  0  0  0
  5  7  1  0  0  0  0
  5  8  1  0  0  0  0
  7 25  1  0  0  0  0
  7 26  1  0  0  0  0
  8  9  2  0  0  0  0
  8 10  1  0  0  0  0
 10 15  1  0  0  0  0
 10 11  1  0  0  0  0
 11 12  1  0  0  0  0
 11 27  1  0  0  0  0
 11 28  1  0  0  0  0
 12 13  1  0  0  0  0
 12 29  1  0  0  0  0
 12 30  1  0  0  0  0
 13 14  1  6  0  0  0
 13 15  1  0  0  0  0
 13 16  1  0  0  0  0
 15 31  1  0  0  0  0
 15 32  1  0  0  0  0
 16 17  2  0  0  0  0
 16 18  1  0  0  0  0
M  END
$$$$
ZINC40075719
 OpenBabel01252620473D

 44 46  0  0  1  0  0  0  0  0999 V2000
    0.7265   -0.4135    4.4184 C   0  0  0  0  0  0  0  0  0  0  0  0
    0.5171   -1.1481    3.1193 C   0  0  0  0  0  0  0  0  0  0  0  0
   -0.6723   -1.5872    2.6483 C   0  0  0  0  0  0  0  0  0  0  0  0
   -0.4252   -2.2136    1.4183 C   0  0  0  0  0  0  0  0  0  0  0  0
    0.9322   -2.1225    1.1972 C   0  0  0  0  0  0  0  0  0  0  0  0
    1.4778   -1.4664    2.2423 O   0  0  0  0  0  0  0  0  0  0  0  0
    1.6538   -2.6411    0.0315 C   0  0  0  0  0  0  0  0  0  0  0  0
    1.0375   -3.1345   -0.8966 O   0  0  0  0  0  0  0  0  0  0  0  0
    3.1188   -2.5661   -0.0178 C   0  0  0  0  0  0  0  0  0  0  0  0
    3.9751   -3.6025   -0.1672 C   0  0  0  0  0  0  0  0  0  0  0  0
    5.3607   -3.0923   -0.1648 C   0  0  0  0  0  0  0  0  0  0  0  0
    6.3567   -3.7787   -0.2806 O   0  0  0  0  0  0  0  0  0  0  0  0
    5.3579   -1.7552   -0.0154 N   0  0  0  0  0  0  0  0  0  0  0  0
    3.9609   -1.3156    0.0820 C   0  0  1  0  0  0  0  0  0  0  0  0
    3.7908   -0.8246    1.0401 H   0  0  0  0  0  0  0  0  0  0  0  0
    3.6298   -0.3761   -1.0488 C   0  0  0  0  0  0  0  0  0  0  0  0
    3.7476   -0.8015   -2.3581 C   0  0  0  0  0  0  0  0  0  0  0  0
    3.4438    0.0604   -3.3963 C   0  0  0  0  0  0  0  0  0  0  0  0
    3.0213    1.3500   -3.1264 C   0  0  0  0  0  0  0  0  0  0  0  0
    2.9017    1.7791   -1.8190 C   0  0  0  0  0  0  0  0  0  0  0  0
    3.2009    0.9144   -0.7759 C   0  0  0  0  0  0  0  0  0  0  0  0
    3.0794    1.3332    0.5114 O   0  0  0  0  0  0  0  0  0  0  0  0
    2.5341    2.6374    0.7206 C   0  0  0  0  0  0  0  0  0  0  0  0
    3.6066   -0.5244   -5.1873 Br  0  0  0  0  0  0  0  0  0  0  0  0
    6.5394   -0.8905    0.0346 C   0  0  0  0  0  0  0  0  0  0  0  0
    6.9818   -0.5486   -1.3896 C   0  0  0  0  0  0  0  0  0  0  0  0
    5.9946    0.2779   -2.0095 O   0  0  0  0  0  0  0  0  0  0  0  0
    3.6182   -4.9019   -0.2978 O   0  5  0  0  0  0  0  0  0  0  0  0
    1.7932   -0.2575    4.5797 H   0  0  0  0  0  0  0  0  0  0  0  0
    0.2206    0.5511    4.3760 H   0  0  0  0  0  0  0  0  0  0  0  0
    0.3173   -1.0027    5.2391 H   0  0  0  0  0  0  0  0  0  0  0  0
   -1.6327   -1.4764    3.1297 H   0  0  0  0  0  0  0  0  0  0  0  0
   -1.1553   -2.6770    0.7713 H   0  0  0  0  0  0  0  0  0  0  0  0
    4.0776   -1.8076   -2.5709 H   0  0  0  0  0  0  0  0  0  0  0  0
    2.7852    2.0217   -3.9385 H   0  0  0  0  0  0  0  0  0  0  0  0
    2.5722    2.7859   -1.6086 H   0  0  0  0  0  0  0  0  0  0  0  0
    2.5613    2.8764    1.7837 H   0  0  0  0  0  0  0  0  0  0  0  0
    3.1226    3.3701    0.1684 H   0  0  0  0  0  0  0  0  0  0  0  0
    1.5026    2.6606    0.3692 H   0  0  0  0  0  0  0  0  0  0  0  0
    6.2956    0.0274    0.5696 H   0  0  0  0  0  0  0  0  0  0  0  0
    7.3472   -1.4086    0.5514 H   0  0  0  0  0  0  0  0  0  0  0  0
    7.9326   -0.0165   -1.3569 H   0  0  0  0  0  0  0  0  0  0  0  0
    7.0992   -1.4674   -1.9641 H   0  0  0  0  0  0  0  0  0  0  0  0
    6.1731    0.4737   -2.9395 H   0  0  0  0  0  0  0  0  0  0  0  0
  1  2  1  0  0  0  0
  1 29  1  0  0  0  0
  1 30  1  0  0  0  0
  1 31  1  0  0  0  0
  2  6  1  0  0  0  0
  2  3  2  0  0  0  0
  3  4  1  0  0  0  0
  3 32  1  0  0  0  0
  4  5  2  0  0  0  0
  4 33  1  0  0  0  0
  5  6  1  0  0  0  0
  5  7  1  0  0  0  0
  7  8  2  0  0  0  0
  7  9  1  0  0  0  0
  9 14  1  0  0  0  0
  9 10  2  0  0  0  0
 10 11  1  0  0  0  0
 10 28  1  0  0  0  0
 11 12  2  0  0  0  0
 11 13  1  0  0  0  0
 13 14  1  0  0  0  0
 13 25  1  0  0  0  0
 14 15  1  1  0  0  0
 14 16  1  0  0  0  0
 16 21  2  0  0  0  0
 16 17  1  0  0  0  0
 17 18  2  0  0  0  0
 17 34  1  0  0  0  0
 18 19  1  0  0  0  0
 18 24  1  0  0  0  0
 19 20  2  0  0  0  0
 19 35  1  0  0  0  0
 20 21  1  0  0  0  0
 20 36  1  0  0  0  0
 21 22  1  0  0  0  0
 22 23  1  0  0  0  0
 23 37  1  0  0  0  0
 23 38  1  0  0  0  0
 23 39  1  0  0  0  0
 25 26  1  0  0  0  0
 25 40  1  0  0  0  0
 25 41  1  0  0  0  0
 26 27  1  0  0  0  0
 26 42  1  0  0  0  0
 26 43  1  0  0  0  0
 27 44  1  0  0  0  0
M  CHG  1  28  -1
M  END
$$$$
ZINC19819315
 OpenBabel01252620473D

 38 39  0  0  0  0  0  0  0  0999 V2000
    0.8459   -0.7976   -0.2487 C   0  0  0  0  0  0  0  0  0  0  0  0
   -0.3148   -1.0338   -1.2171 C   0  0  0  0  0  0  0  0  0  0  0  0
   -1.6203   -0.7832   -0.5072 C   0  0  0  0  0  0  0  0  0  0  0  0
   -2.3533   -1.7026    0.1795 N   0  0  0  0  0  2  0  0  0  0  0  0
   -3.4489   -1.0293    0.6501 C   0  0  0  0  0  0  0  0  0  0  0  0
   -3.3364    0.2176    0.2445 N   0  0  0  0  0  0  0  0  0  0  0  0
   -2.2530    0.3570   -0.4332 N   0  0  0  0  0  0  0  0  0  0  0  0
   -4.4651   -1.5523    1.3980 N   0  0  0  0  0  0  0  0  0  0  0  0
   -5.5524   -1.9509    0.8228 C   0  0  0  0  0  0  0  0  0  0  0  0
   -6.7293   -2.3880    1.6564 C   0  0  0  0  0  0  0  0  0  0  0  0
   -7.8793   -1.4387    1.4388 C   0  0  0  0  0  0  0  0  0  0  0  0
   -7.7551   -0.4969    0.6792 O   0  0  0  0  0  0  0  0  0  0  0  0
   -9.0276   -1.6303    2.0760 N   0  0  0  0  0  0  0  0  0  0  0  0
  -10.0460   -0.7896    1.8833 C   0  0  0  0  0  0  0  0  0  0  0  0
  -10.0504    0.2985    1.0693 N   0  0  0  0  0  0  0  0  0  0  0  0
  -11.2832    0.8914    1.1535 C   0  0  0  0  0  0  0  0  0  0  0  0
  -12.0196    0.2153    1.9763 N   0  0  0  0  0  0  0  0  0  0  0  0
  -11.2665   -0.8648    2.4564 N   0  0  0  0  0  0  0  0  0  0  0  0
  -11.7121    2.1295    0.4090 C   0  0  0  0  0  0  0  0  0  0  0  0
  -13.1585    2.4691    0.7747 C   0  0  0  0  0  0  0  0  0  0  0  0
   -5.6428   -1.9782   -0.6813 C   0  0  0  0  0  0  0  0  0  0  0  0
   -4.3752   -1.7529   -1.2287 F   0  0  0  0  0  0  0  0  0  0  0  0
   -6.1151   -3.2276   -1.0974 F   0  0  0  0  0  0  0  0  0  0  0  0
   -6.5219   -0.9796   -1.1139 F   0  0  0  0  0  0  0  0  0  0  0  0
    1.7901   -0.9789   -0.7622 H   0  0  0  0  0  0  0  0  0  0  0  0
    0.8180    0.2321    0.1076 H   0  0  0  0  0  0  0  0  0  0  0  0
    0.7565   -1.4778    0.5983 H   0  0  0  0  0  0  0  0  0  0  0  0
   -0.2254   -0.3537   -2.0642 H   0  0  0  0  0  0  0  0  0  0  0  0
   -0.2869   -2.0635   -1.5735 H   0  0  0  0  0  0  0  0  0  0  0  0
   -7.0284   -3.3944    1.3632 H   0  0  0  0  0  0  0  0  0  0  0  0
   -6.4496   -2.3846    2.7099 H   0  0  0  0  0  0  0  0  0  0  0  0
  -11.0632    2.9613    0.6830 H   0  0  0  0  0  0  0  0  0  0  0  0
  -11.6409    1.9513   -0.6639 H   0  0  0  0  0  0  0  0  0  0  0  0
  -13.8074    1.6373    0.5007 H   0  0  0  0  0  0  0  0  0  0  0  0
  -13.2297    2.6473    1.8477 H   0  0  0  0  0  0  0  0  0  0  0  0
  -13.4687    3.3646    0.2363 H   0  0  0  0  0  0  0  0  0  0  0  0
   -9.3088    0.6033    0.5233 H   0  0  0  0  0  0  0  0  0  0  0  0
  -11.5658   -1.5402    3.0850 H   0  0  0  0  0  0  0  0  0  0  0  0
  1  2  1  0  0  0  0
  1 25  1  0  0  0  0
  1 26  1  0  0  0  0
  1 27  1  0  0  0  0
  2  3  1  0  0  0  0
  2 28  1  0  0  0  0
  2 29  1  0  0  0  0
  3  7  2  0  0  0  0
  3  4  1  0  0  0  0
  4  5  1  0  0  0  0
  5  6  2  0  0  0  0
  5  8  1  0  0  0  0
  6  7  1  0  0  0  0
  8  9  2  0  0  0  0
  9 21  1  0  0  0  0
  9 10  1  0  0  0  0
 10 11  1  0  0  0  0
 10 31  1  0  0  0  0
 10 30  1  0  0  0  0
 11 12  2  0  0  0  0
 11 13  1  0  0  0  0
 13 14  2  0  0  0  0
 14 15  1  0  0  0  0
 14 18  1  0  0  0  0
 15 16  1  0  0  0  0
 15 37  1  0  0  0  0
 16 19  1  0  0  0  0
 16 17  2  0  0  0  0
 17 18  1  0  0  0  0
 18 38  1  0  0  0  0
 19 20  1  0  0  0  0
 19 32  1  0  0  0  0
 19 33  1  0  0  0  0
 20 34  1  0  0  0  0
 20 35  1  0  0  0  0
 20 36  1  0  0  0  0
 21 22  1  0  0  0  0
 21 23  1  0  0  0  0
 21 24  1  0  0  0  0
M  END
$$$$
ZINC13317471
 OpenBabel01252620473D

 44 46  0  0  0  0  0  0  0  0999 V2000
   -1.1410    2.0130   -0.3856 C   0  0  0  0  0  0  0  0  0  0  0  0
    0.0012    1.2554   -0.2285 C   0  0  0  0  0  0  0  0  0  0  0  0
    1.2442    1.8718   -0.1676 C   0  0  0  0  0  0  0  0  0  0  0  0
    1.3349    3.2694   -0.2606 C   0  0  0  0  0  0  0  0  0  0  0  0
    0.1715    4.0290   -0.4139 C   0  0  0  0  0  0  0  0  0  0  0  0
   -1.0591    3.3993   -0.4727 C   0  0  0  0  0  0  0  0  0  0  0  0
   -2.2251    4.1590   -0.6267 N   0  0  0  0  0  0  0  0  0  0  0  0
   -2.3443    5.1633    0.4403 C   0  0  0  0  0  0  0  0  0  0  0  0
   -3.5982    6.0085    0.2004 C   0  0  0  0  0  0  0  0  0  0  0  0
   -4.7402    5.1501    0.1348 O   0  0  0  0  0  0  0  0  0  0  0  0
   -4.6579    4.1601   -0.8940 C   0  0  0  0  0  0  0  0  0  0  0  0
   -3.4149    3.2962   -0.6652 C   0  0  0  0  0  0  0  0  0  0  0  0
    2.6489    3.9321   -0.1975 C   0  0  0  0  0  0  0  0  0  0  0  0
    3.6583    3.2685   -0.0646 O   0  0  0  0  0  0  0  0  0  0  0  0
    2.3958    1.1064   -0.0153 N   0  0  0  0  0  0  0  0  0  0  0  0
    2.5059   -0.3776   -0.7420 S   0  0  0  0  0  0  0  0  0  0  0  0
    3.8286   -0.8442   -0.5143 O   0  0  0  0  0  0  0  0  0  0  0  0
    1.3587   -1.1131   -0.3392 O   0  0  0  0  0  0  0  0  0  0  0  0
    2.3547   -0.1199   -2.4785 C   0  0  0  0  0  0  0  0  0  0  0  0
    1.1060   -0.1541   -3.0752 C   0  0  0  0  0  0  0  0  0  0  0  0
    0.9768    0.0518   -4.4364 C   0  0  0  0  0  0  0  0  0  0  0  0
    2.0962    0.2829   -5.2122 C   0  0  0  0  0  0  0  0  0  0  0  0
    3.3600    0.3134   -4.6166 C   0  0  0  0  0  0  0  0  0  0  0  0
    3.4809    0.1097   -3.2400 C   0  0  0  0  0  0  0  0  0  0  0  0
    4.5615    0.5603   -5.4383 C   0  0  0  0  0  0  0  0  0  0  0  0
    4.4530    0.7371   -6.6352 O   0  0  0  0  0  0  0  0  0  0  0  0
    1.9333    0.5353   -6.9220 Cl  0  0  0  0  0  0  0  0  0  0  0  0
   -2.1045    1.5277   -0.4371 H   0  0  0  0  0  0  0  0  0  0  0  0
   -0.0711    0.1802   -0.1571 H   0  0  0  0  0  0  0  0  0  0  0  0
    0.2331    5.1048   -0.4865 H   0  0  0  0  0  0  0  0  0  0  0  0
   -2.4224    4.6620    1.4050 H   0  0  0  0  0  0  0  0  0  0  0  0
   -1.4648    5.8071    0.4341 H   0  0  0  0  0  0  0  0  0  0  0  0
   -3.4967    6.5517   -0.7391 H   0  0  0  0  0  0  0  0  0  0  0  0
   -3.7222    6.7173    1.0191 H   0  0  0  0  0  0  0  0  0  0  0  0
   -4.5873    4.6496   -1.8653 H   0  0  0  0  0  0  0  0  0  0  0  0
   -5.5480    3.5315   -0.8671 H   0  0  0  0  0  0  0  0  0  0  0  0
   -3.3167    2.5770   -1.4784 H   0  0  0  0  0  0  0  0  0  0  0  0
   -3.5100    2.7650    0.2818 H   0  0  0  0  0  0  0  0  0  0  0  0
    3.1344    1.4420    0.5164 H   0  0  0  0  0  0  0  0  0  0  0  0
    0.2280   -0.3388   -2.4739 H   0  0  0  0  0  0  0  0  0  0  0  0
   -0.0009    0.0278   -4.8946 H   0  0  0  0  0  0  0  0  0  0  0  0
    4.4546    0.1316   -2.7732 H   0  0  0  0  0  0  0  0  0  0  0  0
    2.7317    5.2742   -0.2872 O   0  0  0  0  0  1  0  0  0  0  0  0
    5.7783    0.5895   -4.8607 O   0  0  0  0  0  1  0  0  0  0  0  0
  1  6  2  0  0  0  0
  1  2  1  0  0  0  0
  1 28  1  0  0  0  0
  2  3  2  0  0  0  0
  2 29  1  0  0  0  0
  3  4  1  0  0  0  0
  3 15  1  0  0  0  0
  4  5  2  0  0  0  0
  4 13  1  0  0  0  0
  5  6  1  0  0  0  0
  5 30  1  0  0  0  0
  6  7  1  0  0  0  0
  7 12  1  0  0  0  0
  7  8  1  0  0  0  0
  8  9  1  0  0  0  0
  8 31  1  0  0  0  0
  8 32  1  0  0  0  0
  9 10  1  0  0  0  0
  9 33  1  0  0  0  0
  9 34  1  0  0  0  0
 10 11  1  0  0  0  0
 11 12  1  0  0  0  0
 11 35  1  0  0  0  0
 11 36  1  0  0  0  0
 12 37  1  0  0  0  0
 12 38  1  0  0  0  0
 13 14  2  0  0  0  0
 13 43  1  0  0  0  0
 15 16  1  0  0  0  0
 15 39  1  0  0  0  0
 16 17  2  0  0  0  0
 16 18  2  0  0  0  0
 16 19  1  0  0  0  0
 19 24  2  0  0  0  0
 19 20  1  0  0  0  0
 20 21  2  0  0  0  0
 20 40  1  0  0  0  0
 21 22  1  0  0  0  0
 21 41  1  0  0  0  0
 22 23  2  0  0  0  0
 22 27  1  0  0  0  0
 23 24  1  0  0  0  0
 23 25  1  0  0  0  0
 24 42  1  0  0  0  0
 25 26  2  0  0  0  0
 25 44  1  0  0  0  0
M  END
$$$$
ZINC28258140
 OpenBabel01252620473D

 37 38  0  0  0  0  0  0  0  0999 V2000
   -2.1615    9.3091   -1.5998 C   0  0  0  0  0  0  0  0  0  0  0  0
   -2.1110    7.8881   -1.4573 O   0  0  0  0  0  0  0  0  0  0  0  0
   -0.9834    7.4180   -0.7159 C   0  0  0  0  0  0  0  0  0  0  0  0
   -1.0312    5.9143   -0.6285 C   0  0  0  0  0  0  0  0  0  0  0  0
   -1.9413    5.3051   -1.1497 O   0  0  0  0  0  0  0  0  0  0  0  0
   -0.0627    5.2464    0.0290 N   0  0  0  0  0  0  0  0  0  0  0  0
   -0.0537    3.8472    0.0285 C   0  0  0  0  0  0  0  0  0  0  0  0
    1.1536    3.1595    0.0115 C   0  0  0  0  0  0  0  0  0  0  0  0
    1.1636    1.7781    0.0109 C   0  0  0  0  0  0  0  0  0  0  0  0
   -0.0261    1.0756    0.0277 C   0  0  0  0  0  0  0  0  0  0  0  0
   -1.2369    1.7572    0.0399 C   0  0  0  0  0  0  0  0  0  0  0  0
   -1.2500    3.1452    0.0454 C   0  0  0  0  0  0  0  0  0  0  0  0
   -2.4392    1.0465    0.0510 N   0  0  0  0  0  2  0  0  0  0  0  0
   -2.6263   -0.2484    1.0661 S   0  0  0  0  0  0  0  0  0  0  0  0
   -3.9462   -0.7348    0.8650 O   0  0  0  0  0  0  0  0  0  0  0  0
   -1.4781   -1.0680    0.8947 O   0  0  0  0  0  0  0  0  0  0  0  0
   -2.5628    0.3688    2.7152 C   0  0  0  0  0  0  0  0  0  0  0  0
   -3.6783    0.2871    3.5270 C   0  0  0  0  0  0  0  0  0  0  0  0
   -3.6283    0.7716    4.8228 C   0  0  0  0  0  0  0  0  0  0  0  0
   -2.4605    1.3377    5.3057 C   0  0  0  0  0  0  0  0  0  0  0  0
   -1.3455    1.4199    4.4940 C   0  0  0  0  0  0  0  0  0  0  0  0
   -1.3939    0.9304    3.1995 C   0  0  0  0  0  0  0  0  0  0  0  0
   -0.3020    1.0057    2.4076 F   0  0  0  0  0  0  0  0  0  0  0  0
   -4.7187    0.6917    5.6164 F   0  0  0  0  0  0  0  0  0  0  0  0
   -3.0539    9.5880   -2.1793 H   0  0  0  0  0  0  0  0  0  0  0  0
   -1.2598    9.6572   -2.1249 H   0  0  0  0  0  0  0  0  0  0  0  0
   -2.2097    9.7759   -0.6049 H   0  0  0  0  0  0  0  0  0  0  0  0
   -0.0570    7.7266   -1.2224 H   0  0  0  0  0  0  0  0  0  0  0  0
   -1.0069    7.8451    0.2975 H   0  0  0  0  0  0  0  0  0  0  0  0
    0.7207    5.8012    0.5660 H   0  0  0  0  0  0  0  0  0  0  0  0
    2.0853    3.7056   -0.0017 H   0  0  0  0  0  0  0  0  0  0  0  0
    2.1033    1.2461   -0.0030 H   0  0  0  0  0  0  0  0  0  0  0  0
   -0.0150   -0.0043    0.0269 H   0  0  0  0  0  0  0  0  0  0  0  0
   -2.1896    3.6774    0.0583 H   0  0  0  0  0  0  0  0  0  0  0  0
   -4.5889   -0.1551    3.1506 H   0  0  0  0  0  0  0  0  0  0  0  0
   -2.4214    1.7154    6.3167 H   0  0  0  0  0  0  0  0  0  0  0  0
   -0.4348    1.8617    4.8705 H   0  0  0  0  0  0  0  0  0  0  0  0
  1  2  1  0  0  0  0
  1 25  1  0  0  0  0
  1 26  1  0  0  0  0
  1 27  1  0  0  0  0
  2  3  1  0  0  0  0
  3  4  1  0  0  0  0
  3 28  1  0  0  0  0
  3 29  1  0  0  0  0
  4  5  2  0  0  0  0
  4  6  1  0  0  0  0
  6  7  1  0  0  0  0
  6 30  1  0  0  0  0
  7 12  2  0  0  0  0
  7  8  1  0  0  0  0
  8  9  2  0  0  0  0
  8 31  1  0  0  0  0
  9 10  1  0  0  0  0
  9 32  1  0  0  0  0
 10 11  2  0  0  0  0
 10 33  1  0  0  0  0
 11 12  1  0  0  0  0
 11 13  1  0  0  0  0
 12 34  1  0  0  0  0
 13 14  1  0  0  0  0
 14 15  2  0  0  0  0
 14 16  2  0  0  0  0
 14 17  1  0  0  0  0
 17 22  2  0  0  0  0
 17 18  1  0  0  0  0
 18 19  2  0  0  0  0
 18 35  1  0  0  0  0
 19 20  1  0  0  0  0
 19 24  1  0  0  0  0
 20 21  2  0  0  0  0
 20 36  1  0  0  0  0
 21 22  1  0  0  0  0
 21 37  1  0  0  0  0
 22 23  1  0  0  0  0
M  END
$$$$
ZINC03887057
 OpenBabel01252620473D

 28 29  0  0  1  0  0  0  0  0999 V2000
   -2.2186    5.5269   -0.4607 C   0  0  0  0  0  0  0  0  0  0  0  0
   -3.5203    6.0679    0.1968 C   0  0  0  0  0  0  0  0  0  0  0  0
   -3.2071    5.6446    1.9625 S   0  0  0  0  0  0  0  0  0  0  0  0
   -3.7667    4.3678    2.2380 O   0  0  0  0  0  0  0  0  0  0  0  0
   -3.5637    6.7544    2.7751 O   0  0  0  0  0  0  0  0  0  0  0  0
   -1.3743    5.4982    1.9203 C   0  0  0  0  0  0  0  0  0  0  0  0
   -1.0366    5.8775    0.4583 C   0  0  1  0  0  0  0  0  0  0  0  0
   -0.8380    6.9476    0.3987 H   0  0  0  0  0  0  0  0  0  0  0  0
    0.1517    5.1376    0.0260 N   0  0  0  0  0  0  0  0  0  0  0  0
    1.2529    5.8087   -0.3647 C   0  0  0  0  0  0  0  0  0  0  0  0
    1.2593    7.0212   -0.3624 O   0  0  0  0  0  0  0  0  0  0  0  0
    2.4773    5.0465   -0.8042 C   0  0  0  0  0  0  0  0  0  0  0  0
    2.5764    3.7471   -0.0024 C   0  0  0  0  0  0  0  0  0  0  0  0
    1.2390    3.0559    0.0066 C   0  0  0  0  0  0  0  0  0  0  0  0
    0.1359    3.7392    0.0155 N   0  0  0  0  0  0  0  0  0  0  0  0
    1.1822    1.5914   -0.0007 C   0  0  0  0  0  0  0  0  0  0  0  0
    2.2107    0.9432   -0.0140 O   0  0  0  0  0  0  0  0  0  0  0  0
   -2.0775    5.9930   -1.4359 H   0  0  0  0  0  0  0  0  0  0  0  0
   -2.2867    4.4452   -0.5765 H   0  0  0  0  0  0  0  0  0  0  0  0
   -4.3995    5.5477   -0.1833 H   0  0  0  0  0  0  0  0  0  0  0  0
   -3.6126    7.1453    0.0601 H   0  0  0  0  0  0  0  0  0  0  0  0
   -1.0632    4.4761    2.1362 H   0  0  0  0  0  0  0  0  0  0  0  0
   -0.9145    6.1987    2.6174 H   0  0  0  0  0  0  0  0  0  0  0  0
    3.3661    5.6521   -0.6274 H   0  0  0  0  0  0  0  0  0  0  0  0
    2.3996    4.8140   -1.8663 H   0  0  0  0  0  0  0  0  0  0  0  0
    2.8746    3.9741    1.0211 H   0  0  0  0  0  0  0  0  0  0  0  0
    3.3194    3.0940   -0.4601 H   0  0  0  0  0  0  0  0  0  0  0  0
   -0.0110    0.9628    0.0073 O   0  0  0  0  0  1  0  0  0  0  0  0
  1  7  1  0  0  0  0
  1  2  1  0  0  0  0
  1 18  1  0  0  0  0
  1 19  1  0  0  0  0
  2  3  1  0  0  0  0
  2 20  1  0  0  0  0
  2 21  1  0  0  0  0
  3  4  2  0  0  0  0
  3  5  2  0  0  0  0
  3  6  1  0  0  0  0
  6  7  1  0  0  0  0
  6 22  1  0  0  0  0
  6 23  1  0  0  0  0
  7  8  1  6  0  0  0
  7  9  1  0  0  0  0
  9 15  1  0  0  0  0
  9 10  1  0  0  0  0
 10 11  2  0  0  0  0
 10 12  1  0  0  0  0
 12 13  1  0  0  0  0
 12 24  1  0  0  0  0
 12 25  1  0  0  0  0
 13 14  1  0  0  0  0
 13 26  1  0  0  0  0
 13 27  1  0  0  0  0
 14 15  2  0  0  0  0
 14 16  1  0  0  0  0
 16 17  2  0  0  0  0
 16 28  1  0  0  0  0
M  END
$$$$
ZINC61122926
 OpenBabel01252620473D

 35 36  0  0  1  0  0  0  0  0999 V2000
   -0.1069    1.5631    0.2347 C   0  0  0  0  0  0  0  0  0  0  0  0
   -0.1091    0.0332    0.2181 C   0  0  1  0  0  0  0  0  0  0  0  0
   -1.1181   -0.3308    0.4115 H   0  0  0  0  0  0  0  0  0  0  0  0
    0.3582   -0.4626   -1.1518 C   0  0  0  0  0  0  0  0  0  0  0  0
    1.7745    0.0483   -1.4233 C   0  0  0  0  0  0  0  0  0  0  0  0
    2.7215   -0.4748   -0.3414 C   0  0  0  0  0  0  0  0  0  0  0  0
    2.2543    0.0210    1.0285 C   0  0  1  0  0  0  0  0  0  0  0  0
    0.8379   -0.4900    1.3000 C   0  0  0  0  0  0  0  0  0  0  0  0
    3.1870   -0.4943    2.0942 C   0  0  0  0  0  0  0  0  0  0  0  0
    3.7970    0.2895    2.8014 O   0  0  0  0  0  0  0  0  0  0  0  0
    3.3317   -1.6949    2.2491 O   0  0  0  0  0  1  0  0  0  0  0  0
    2.2564    1.4859    1.0445 N   0  0  0  0  0  0  0  0  0  0  0  0
    1.8437    2.1731    2.1899 C   0  0  0  0  0  0  0  0  0  0  0  0
    1.5576    1.4735    3.3547 C   0  0  0  0  0  0  0  0  0  0  0  0
    1.1498    2.1548    4.4876 C   0  0  0  0  0  0  0  0  0  0  0  0
    1.0268    3.5352    4.4603 C   0  0  0  0  0  0  0  0  0  0  0  0
    1.3116    4.2348    3.2981 C   0  0  0  0  0  0  0  0  0  0  0  0
    1.7251    3.5564    2.1654 C   0  0  0  0  0  0  0  0  0  0  0  0
    1.1908    5.5801    3.2730 F   0  0  0  0  0  0  0  0  0  0  0  0
    0.6284    4.1993    5.5673 F   0  0  0  0  0  0  0  0  0  0  0  0
    0.8709    1.4744    5.6210 F   0  0  0  0  0  0  0  0  0  0  0  0
    0.8422    1.9293   -0.1566 H   0  0  0  0  0  0  0  0  0  0  0  0
   -0.9230    1.9343   -0.3852 H   0  0  0  0  0  0  0  0  0  0  0  0
   -0.2384    1.9155    1.2578 H   0  0  0  0  0  0  0  0  0  0  0  0
    0.3566   -1.5526   -1.1637 H   0  0  0  0  0  0  0  0  0  0  0  0
   -0.3165   -0.0899   -1.9226 H   0  0  0  0  0  0  0  0  0  0  0  0
    2.1074   -0.3049   -2.3993 H   0  0  0  0  0  0  0  0  0  0  0  0
    1.7761    1.1383   -1.4114 H   0  0  0  0  0  0  0  0  0  0  0  0
    2.7200   -1.5647   -0.3533 H   0  0  0  0  0  0  0  0  0  0  0  0
    3.7306   -0.1108   -0.5348 H   0  0  0  0  0  0  0  0  0  0  0  0
    0.5051   -0.1367    2.2760 H   0  0  0  0  0  0  0  0  0  0  0  0
    0.8364   -1.5799    1.2881 H   0  0  0  0  0  0  0  0  0  0  0  0
    2.5441    1.9791    0.2603 H   0  0  0  0  0  0  0  0  0  0  0  0
    1.6530    0.3979    3.3762 H   0  0  0  0  0  0  0  0  0  0  0  0
    1.9516    4.1022    1.2614 H   0  0  0  0  0  0  0  0  0  0  0  0
  1  2  1  0  0  0  0
  1 22  1  0  0  0  0
  1 23  1  0  0  0  0
  1 24  1  0  0  0  0
  2  3  1  1  0  0  0
  2  8  1  0  0  0  0
  2  4  1  0  0  0  0
  4  5  1  0  0  0  0
  4 25  1  0  0  0  0
  4 26  1  0  0  0  0
  5  6  1  0  0  0  0
  5 27  1  0  0  0  0
  5 28  1  0  0  0  0
  6  7  1  0  0  0  0
  6 29  1  0  0  0  0
  6 30  1  0  0  0  0
  7  8  1  0  0  0  0
  7  9  1  1  0  0  0
  7 12  1  0  0  0  0
  8 31  1  0  0  0  0
  8 32  1  0  0  0  0
  9 10  2  0  0  0  0
  9 11  1  0  0  0  0
 12 13  1  0  0  0  0
 12 33  1  0  0  0  0
 13 18  2  0  0  0  0
 13 14  1  0  0  0  0
 14 15  2  0  0  0  0
 14 34  1  0  0  0  0
 15 16  1  0  0  0  0
 15 21  1  0  0  0  0
 16 17  2  0  0  0  0
 16 20  1  0  0  0  0
 17 18  1  0  0  0  0
 17 19  1  0  0  0  0
 18 35  1  0  0  0  0
M  END
$$$$
ZINC39360774
 OpenBabel01252620473D

 42 44  0  0  1  0  0  0  0  0999 V2000
   -0.0192    1.3410   -1.3853 C   0  0  0  0  0  0  0  0  0  0  0  0
   -0.0112   -0.1722   -1.1587 C   0  0  0  0  0  0  0  0  0  0  0  0
   -1.7045   -0.7467   -0.8531 S   0  0  0  0  0  0  0  0  0  0  0  0
   -1.5288   -2.4836   -0.6145 C   0  0  0  0  0  0  0  0  0  0  0  0
   -0.3057   -2.9877   -0.6915 N   0  0  0  0  0  0  0  0  0  0  0  0
   -0.0833   -4.3033   -0.6934 C   0  0  0  0  0  0  0  0  0  0  0  0
    1.0409   -4.7627   -0.7561 O   0  0  0  0  0  0  0  0  0  0  0  0
   -1.3047   -5.1932   -0.6128 C   0  0  1  0  0  0  0  0  0  0  0  0
   -1.4063   -5.7067   -1.5689 H   0  0  0  0  0  0  0  0  0  0  0  0
   -1.0759   -6.2553    0.4554 C   0  0  1  0  0  0  0  0  0  0  0  0
   -0.8483   -5.7744    1.4067 H   0  0  0  0  0  0  0  0  0  0  0  0
   -2.3355   -7.0803    0.5922 C   0  0  0  0  0  0  0  0  0  0  0  0
   -3.5726   -6.4755    0.4219 C   0  0  0  0  0  0  0  0  0  0  0  0
   -3.6660   -5.1992    0.0863 N   0  0  0  0  0  0  0  0  0  0  0  0
   -2.6183   -4.5015   -0.3171 C   0  0  0  0  0  0  0  0  0  0  0  0
   -2.6345   -3.1813   -0.3664 N   0  0  0  0  0  0  0  0  0  0  0  0
   -4.8283   -7.2845    0.6217 C   0  0  0  0  0  0  0  0  0  0  0  0
   -2.2551   -8.4281    0.8845 C   0  0  0  0  0  0  0  0  0  0  0  0
   -1.0652   -8.9821    1.1854 O   0  5  0  0  0  0  0  0  0  0  0  0
   -3.3668   -9.1880    0.8686 O   0  0  0  0  0  0  0  0  0  0  0  0
   -3.2100  -10.5736    1.1808 C   0  0  0  0  0  0  0  0  0  0  0  0
    0.0727   -7.1423    0.0492 C   0  0  0  0  0  0  0  0  0  0  0  0
    0.0253   -7.8693   -1.1305 C   0  0  0  0  0  0  0  0  0  0  0  0
    1.0976   -8.6722   -1.4703 C   0  0  0  0  0  0  0  0  0  0  0  0
    2.1557   -8.7514   -0.6873 N   0  0  0  0  0  0  0  0  0  0  0  0
    2.2353   -8.0745    0.4415 C   0  0  0  0  0  0  0  0  0  0  0  0
    1.2044   -7.2463    0.8434 C   0  0  0  0  0  0  0  0  0  0  0  0
    0.9983    1.6862   -1.5690 H   0  0  0  0  0  0  0  0  0  0  0  0
   -0.6437    1.5760   -2.2472 H   0  0  0  0  0  0  0  0  0  0  0  0
   -0.4177    1.8387   -0.5013 H   0  0  0  0  0  0  0  0  0  0  0  0
    0.3873   -0.6699   -2.0428 H   0  0  0  0  0  0  0  0  0  0  0  0
    0.6133   -0.4072   -0.2969 H   0  0  0  0  0  0  0  0  0  0  0  0
   -4.8150   -7.7371    1.6132 H   0  0  0  0  0  0  0  0  0  0  0  0
   -5.6980   -6.6338    0.5309 H   0  0  0  0  0  0  0  0  0  0  0  0
   -4.8800   -8.0677   -0.1346 H   0  0  0  0  0  0  0  0  0  0  0  0
   -4.1797  -11.0690    1.1321 H   0  0  0  0  0  0  0  0  0  0  0  0
   -2.5308  -11.0332    0.4627 H   0  0  0  0  0  0  0  0  0  0  0  0
   -2.7999  -10.6756    2.1855 H   0  0  0  0  0  0  0  0  0  0  0  0
   -0.8389   -7.8091   -1.7755 H   0  0  0  0  0  0  0  0  0  0  0  0
    1.0684   -9.2417   -2.3875 H   0  0  0  0  0  0  0  0  0  0  0  0
    3.1181   -8.1650    1.0571 H   0  0  0  0  0  0  0  0  0  0  0  0
    1.2776   -6.6906    1.7665 H   0  0  0  0  0  0  0  0  0  0  0  0
  1  2  1  0  0  0  0
  1 28  1  0  0  0  0
  1 29  1  0  0  0  0
  1 30  1  0  0  0  0
  2  3  1  0  0  0  0
  2 31  1  0  0  0  0
  2 32  1  0  0  0  0
  3  4  1  0  0  0  0
  4 16  1  0  0  0  0
  4  5  2  0  0  0  0
  5  6  1  0  0  0  0
  6  7  2  0  0  0  0
  6  8  1  0  0  0  0
  8  9  1  6  0  0  0
  8 15  1  0  0  0  0
  8 10  1  0  0  0  0
 10 11  1  1  0  0  0
 10 12  1  0  0  0  0
 10 22  1  0  0  0  0
 12 13  1  0  0  0  0
 12 18  2  0  0  0  0
 13 14  2  0  0  0  0
 13 17  1  0  0  0  0
 14 15  1  0  0  0  0
 15 16  2  0  0  0  0
 17 33  1  0  0  0  0
 17 34  1  0  0  0  0
 17 35  1  0  0  0  0
 18 19  1  0  0  0  0
 18 20  1  0  0  0  0
 20 21  1  0  0  0  0
 21 36  1  0  0  0  0
 21 37  1  0  0  0  0
 21 38  1  0  0  0  0
 22 27  2  0  0  0  0
 22 23  1  0  0  0  0
 23 24  2  0  0  0  0
 23 39  1  0  0  0  0
 24 25  1  0  0  0  0
 24 40  1  0  0  0  0
 25 26  2  0  0  0  0
 26 27  1  0  0  0  0
 26 41  1  0  0  0  0
 27 42  1  0  0  0  0
M  CHG  1  19  -1
M  END
$$$$
ZINC38509304
 OpenBabel01252620473D

 56 58  0  0  0  0  0  0  0  0999 V2000
   -0.0187    1.5258    0.0104 C   0  0  0  0  0  0  0  0  0  0  0  0
    0.0021   -0.0041    0.0020 C   0  0  0  0  0  0  0  0  0  0  0  0
    0.7182   -0.4975   -1.2568 C   0  0  0  0  0  0  0  0  0  0  0  0
    0.7376   -1.9263   -1.2646 O   0  0  0  0  0  0  0  0  0  0  0  0
    1.3421   -2.5302   -2.3237 C   0  0  0  0  0  0  0  0  0  0  0  0
    1.9406   -1.9266   -3.3824 C   0  0  0  0  0  0  0  0  0  0  0  0
    2.4070   -2.9144   -4.1942 N   0  0  0  0  0  0  0  0  0  0  0  0
    2.1293   -4.0650   -3.6951 N   0  0  0  0  0  0  0  0  0  0  0  0
    1.4852   -3.9227   -2.5514 C   0  0  0  0  0  0  0  0  0  0  0  0
    1.0030   -5.0073   -1.6769 C   0  0  0  0  0  0  0  0  0  0  0  0
    0.4175   -4.7413   -0.6447 O   0  0  0  0  0  0  0  0  0  0  0  0
    1.2110   -6.2936   -2.0214 N   0  0  0  0  0  0  0  0  0  0  0  0
    0.7557   -7.3174   -1.1959 C   0  0  0  0  0  0  0  0  0  0  0  0
    0.1030   -7.2411   -0.0530 N   0  0  0  0  0  0  0  0  0  0  0  0
   -0.2576   -8.3923    0.6083 N   0  0  0  0  0  0  0  0  0  0  0  0
    0.0521   -9.5684    0.0946 C   0  0  0  0  0  0  0  0  0  0  0  0
    0.8928   -9.0860   -1.4059 S   0  0  0  0  0  0  0  0  0  0  0  0
   -0.2800  -11.1822    0.7191 S   0  0  0  0  0  0  0  0  0  0  0  0
   -1.1689  -10.8779    2.2708 C   0  0  0  0  0  0  0  0  0  0  0  0
   -1.5175  -12.1942    2.9165 C   0  0  0  0  0  0  0  0  0  0  0  0
   -1.1977  -13.2351    2.3825 O   0  0  0  0  0  0  0  0  0  0  0  0
   -2.1846  -12.2146    4.0875 N   0  0  0  0  0  0  0  0  0  0  0  0
   -2.5234  -13.4942    4.7152 C   0  0  0  0  0  0  0  0  0  0  0  0
   -3.2732  -13.2376    6.0239 C   0  0  0  0  0  0  0  0  0  0  0  0
   -4.5263  -12.6121    5.7402 O   0  0  0  0  0  0  0  0  0  0  0  0
   -5.3098  -12.3274    6.9009 C   0  0  0  0  0  0  0  0  0  0  0  0
    3.0903   -2.7065   -5.3999 C   0  0  0  0  0  0  0  0  0  0  0  0
    3.3411   -1.4146   -5.8430 C   0  0  0  0  0  0  0  0  0  0  0  0
    4.0145   -1.2118   -7.0314 C   0  0  0  0  0  0  0  0  0  0  0  0
    4.4392   -2.2959   -7.7814 C   0  0  0  0  0  0  0  0  0  0  0  0
    4.1900   -3.5851   -7.3412 C   0  0  0  0  0  0  0  0  0  0  0  0
    3.5224   -3.7921   -6.1502 C   0  0  0  0  0  0  0  0  0  0  0  0
    5.0971   -2.0954   -8.9442 F   0  0  0  0  0  0  0  0  0  0  0  0
    1.0039    1.9031    0.0027 H   0  0  0  0  0  0  0  0  0  0  0  0
   -0.5459    1.8868   -0.8726 H   0  0  0  0  0  0  0  0  0  0  0  0
   -0.5289    1.8773    0.9072 H   0  0  0  0  0  0  0  0  0  0  0  0
    0.5293   -0.3651    0.8851 H   0  0  0  0  0  0  0  0  0  0  0  0
   -1.0205   -0.3814    0.0098 H   0  0  0  0  0  0  0  0  0  0  0  0
    0.1910   -0.1364   -2.1398 H   0  0  0  0  0  0  0  0  0  0  0  0
    1.7408   -0.1202   -1.2645 H   0  0  0  0  0  0  0  0  0  0  0  0
    2.0294   -0.8632   -3.5490 H   0  0  0  0  0  0  0  0  0  0  0  0
    1.6780   -6.5057   -2.8447 H   0  0  0  0  0  0  0  0  0  0  0  0
   -0.5368  -10.2990    2.9442 H   0  0  0  0  0  0  0  0  0  0  0  0
   -2.0831  -10.3218    2.0629 H   0  0  0  0  0  0  0  0  0  0  0  0
   -2.4403  -11.3821    4.5146 H   0  0  0  0  0  0  0  0  0  0  0  0
   -3.1555  -14.0731    4.0418 H   0  0  0  0  0  0  0  0  0  0  0  0
   -1.6092  -14.0503    4.9232 H   0  0  0  0  0  0  0  0  0  0  0  0
   -3.4472  -14.1846    6.5347 H   0  0  0  0  0  0  0  0  0  0  0  0
   -2.6774  -12.5848    6.6619 H   0  0  0  0  0  0  0  0  0  0  0  0
   -5.5260  -13.2556    7.4299 H   0  0  0  0  0  0  0  0  0  0  0  0
   -4.7563  -11.6557    7.5571 H   0  0  0  0  0  0  0  0  0  0  0  0
   -6.2446  -11.8538    6.6011 H   0  0  0  0  0  0  0  0  0  0  0  0
    3.0094   -0.5690   -5.2587 H   0  0  0  0  0  0  0  0  0  0  0  0
    4.2098   -0.2072   -7.3763 H   0  0  0  0  0  0  0  0  0  0  0  0
    4.5220   -4.4292   -7.9274 H   0  0  0  0  0  0  0  0  0  0  0  0
    3.3325   -4.7976   -5.8048 H   0  0  0  0  0  0  0  0  0  0  0  0
  1  2  1  0  0  0  0
  1 34  1  0  0  0  0
  1 35  1  0  0  0  0
  1 36  1  0  0  0  0
  2  3  1  0  0  0  0
  2 37  1  0  0  0  0
  2 38  1  0  0  0  0
  3  4  1  0  0  0  0
  3 39  1  0  0  0  0
  3 40  1  0  0  0  0
  4  5  1  0  0  0  0
  5  9  1  0  0  0  0
  5  6  2  0  0  0  0
  6  7  1  0  0  0  0
  6 41  1  0  0  0  0
  7  8  1  0  0  0  0
  7 27  1  0  0  0  0
  8  9  2  0  0  0  0
  9 10  1  0  0  0  0
 10 11  2  0  0  0  0
 10 12  1  0  0  0  0
 12 13  1  0  0  0  0
 12 42  1  0  0  0  0
 13 17  1  0  0  0  0
 13 14  2  0  0  0  0
 14 15  1  0  0  0  0
 15 16  2  0  0  0  0
 16 17  1  0  0  0  0
 16 18  1  0  0  0  0
 18 19  1  0  0  0  0
 19 20  1  0  0  0  0
 19 43  1  0  0  0  0
 19 44  1  0  0  0  0
 20 21  2  0  0  0  0
 20 22  1  0  0  0  0
 22 23  1  0  0  0  0
 22 45  1  0  0  0  0
 23 24  1  0  0  0  0
 23 46  1  0  0  0  0
 23 47  1  0  0  0  0
 24 25  1  0  0  0  0
 24 48  1  0  0  0  0
 24 49  1  0  0  0  0
 25 26  1  0  0  0  0
 26 50  1  0  0  0  0
 26 51  1  0  0  0  0
 26 52  1  0  0  0  0
 27 32  2  0  0  0  0
 27 28  1  0  0  0  0
 28 29  2  0  0  0  0
 28 53  1  0  0  0  0
 29 30  1  0  0  0  0
 29 54  1  0  0  0  0
 30 31  2  0  0  0  0
 30 33  1  0  0  0  0
 31 32  1  0  0  0  0
 31 55  1  0  0  0  0
 32 56  1  0  0  0  0
M  END
$$$$
ZINC39462509
 OpenBabel01252620473D

 51 54  0  0  1  0  0  0  0  0999 V2000
    0.0194    1.5690    0.3006 C   0  0  0  0  0  0  0  0  0  0  0  0
    0.0205    0.0673    0.1746 C   0  0  0  0  0  0  0  0  0  0  0  0
    0.0048   -0.4960   -1.0177 C   0  0  0  0  0  0  0  0  0  0  0  0
   -0.0062   -2.2556   -0.7265 S   0  0  0  0  0  0  0  0  0  0  0  0
   -0.4149   -2.2337    1.0699 C   0  0  1  0  0  0  0  0  0  0  0  0
    0.1676   -2.9716    1.6215 H   0  0  0  0  0  0  0  0  0  0  0  0
    0.0454   -0.7874    1.4008 C   0  0  1  0  0  0  0  0  0  0  0  0
   -0.6235   -0.3619    2.1487 H   0  0  0  0  0  0  0  0  0  0  0  0
    1.4470   -0.8216    1.9535 C   0  0  0  0  0  0  0  0  0  0  0  0
    2.0415   -1.8709    2.0282 O   0  0  0  0  0  0  0  0  0  0  0  0
    2.0349    0.3135    2.3629 O   0  0  0  0  0  0  0  0  0  0  0  0
    3.3644    0.2071    2.8758 C   0  0  1  0  0  0  0  0  0  0  0  0
    3.4987   -0.7714    3.3369 H   0  0  0  0  0  0  0  0  0  0  0  0
    4.3671    0.3740    1.7322 C   0  0  0  0  0  0  0  0  0  0  0  0
    3.5932    1.2834    3.9055 C   0  0  0  0  0  0  0  0  0  0  0  0
    2.8726    2.4140    3.8654 O   0  5  0  0  0  0  0  0  0  0  0  0
    4.4977    1.1144    4.8416 N   0  0  0  0  0  0  0  0  0  0  0  0
    4.7006    2.0690    5.7549 C   0  0  0  0  0  0  0  0  0  0  0  0
    3.9991    3.1931    5.7420 N   0  0  0  0  0  0  0  0  0  0  0  0
    4.2363    4.2258    6.5375 C   0  0  0  0  0  0  0  0  0  0  0  0
    5.3299    4.3216    7.2850 N   0  0  0  0  0  0  0  0  0  0  0  0
    6.1959    3.3188    7.1877 C   0  0  0  0  0  0  0  0  0  0  0  0
    7.4904    3.2270    7.2711 N   0  0  0  0  0  0  0  0  0  0  0  0
    7.9322    2.0842    6.7300 C   0  0  0  0  0  0  0  0  0  0  0  0
    6.9707    1.2627    6.4099 N   0  0  0  0  0  0  0  0  0  0  0  0
    5.7290    1.9051    6.8393 C   0  0  2  0  0  0  0  0  0  0  0  0
    5.2982    1.4083    7.7086 H   0  0  0  0  0  0  0  0  0  0  0  0
   -1.8513   -2.4121    1.2963 N   0  0  0  0  0  0  0  0  0  0  0  0
   -2.3018   -3.5120    1.9316 C   0  0  0  0  0  0  0  0  0  0  0  0
   -1.5147   -4.3093    2.3960 O   0  0  0  0  0  0  0  0  0  0  0  0
   -3.7837   -3.7513    2.0650 C   0  0  0  0  0  0  0  0  0  0  0  0
   -4.3923   -3.6510    3.4651 C   0  0  0  0  0  0  0  0  0  0  0  0
   -4.2318   -5.0179    2.7968 C   0  0  0  0  0  0  0  0  0  0  0  0
   -0.0027    0.2036   -2.3525 C   0  0  0  0  0  0  0  0  0  0  0  0
    1.0466    1.9334    0.3117 H   0  0  0  0  0  0  0  0  0  0  0  0
   -0.5114    2.0042   -0.5460 H   0  0  0  0  0  0  0  0  0  0  0  0
   -0.4778    1.8555    1.2274 H   0  0  0  0  0  0  0  0  0  0  0  0
    4.2328    1.3524    1.2711 H   0  0  0  0  0  0  0  0  0  0  0  0
    5.3812    0.2928    2.1235 H   0  0  0  0  0  0  0  0  0  0  0  0
    4.2016   -0.4045    0.9874 H   0  0  0  0  0  0  0  0  0  0  0  0
    3.5098    5.0238    6.5796 H   0  0  0  0  0  0  0  0  0  0  0  0
    8.9782    1.8653    6.5740 H   0  0  0  0  0  0  0  0  0  0  0  0
   -2.4780   -1.7386    0.9890 H   0  0  0  0  0  0  0  0  0  0  0  0
   -4.3919   -3.4129    1.2261 H   0  0  0  0  0  0  0  0  0  0  0  0
   -3.7209   -3.4120    4.2898 H   0  0  0  0  0  0  0  0  0  0  0  0
   -5.4011   -3.2465    3.5476 H   0  0  0  0  0  0  0  0  0  0  0  0
   -5.1350   -5.5127    2.4397 H   0  0  0  0  0  0  0  0  0  0  0  0
   -3.4547   -5.6782    3.1819 H   0  0  0  0  0  0  0  0  0  0  0  0
    1.0231    0.3646   -2.6841 H   0  0  0  0  0  0  0  0  0  0  0  0
   -0.5282   -0.4121   -3.0825 H   0  0  0  0  0  0  0  0  0  0  0  0
   -0.5085    1.1644   -2.2563 H   0  0  0  0  0  0  0  0  0  0  0  0
  1  2  1  0  0  0  0
  1 35  1  0  0  0  0
  1 36  1  0  0  0  0
  1 37  1  0  0  0  0
  2  7  1  0  0  0  0
  2  3  2  0  0  0  0
  3  4  1  0  0  0  0
  3 34  1  0  0  0  0
  4  5  1  0  0  0  0
  5  6  1  1  0  0  0
  5  7  1  0  0  0  0
  5 28  1  0  0  0  0
  7  8  1  1  0  0  0
  7  9  1  0  0  0  0
  9 10  2  0  0  0  0
  9 11  1  0  0  0  0
 11 12  1  0  0  0  0
 12 13  1  1  0  0  0
 12 14  1  0  0  0  0
 12 15  1  0  0  0  0
 14 38  1  0  0  0  0
 14 39  1  0  0  0  0
 14 40  1  0  0  0  0
 15 16  1  0  0  0  0
 15 17  2  0  0  0  0
 17 18  1  0  0  0  0
 18 26  1  0  0  0  0
 18 19  2  0  0  0  0
 19 20  1  0  0  0  0
 20 21  2  0  0  0  0
 20 41  1  0  0  0  0
 21 22  1  0  0  0  0
 22 26  1  0  0  0  0
 22 23  2  0  0  0  0
 23 24  1  0  0  0  0
 24 25  2  0  0  0  0
 24 42  1  0  0  0  0
 25 26  1  0  0  0  0
 26 27  1  1  0  0  0
 28 29  1  0  0  0  0
 28 43  1  0  0  0  0
 29 30  2  0  0  0  0
 29 31  1  0  0  0  0
 31 33  1  0  0  0  0
 31 32  1  0  0  0  0
 31 44  1  0  0  0  0
 32 33  1  0  0  0  0
 32 45  1  0  0  0  0
 32 46  1  0  0  0  0
 33 47  1  0  0  0  0
 33 48  1  0  0  0  0
 34 49  1  0  0  0  0
 34 50  1  0  0  0  0
 34 51  1  0  0  0  0
M  CHG  1  16  -1
M  END
$$$$
ZINC53722600
 OpenBabel01252620473D

 55 57  0  0  1  0  0  0  0  0999 V2000
   -0.0167    1.3782    0.0096 C   0  0  0  0  0  0  0  0  0  0  0  0
    1.1700    2.0882    0.0021 C   0  0  0  0  0  0  0  0  0  0  0  0
    2.3773    1.4175   -0.0134 C   0  0  0  0  0  0  0  0  0  0  0  0
    2.3989    0.0301   -0.0210 C   0  0  0  0  0  0  0  0  0  0  0  0
    1.2072   -0.6797   -0.0130 C   0  0  0  0  0  0  0  0  0  0  0  0
    0.0021   -0.0041    0.0020 C   0  0  0  0  0  0  0  0  0  0  0  0
    1.2269   -2.1866   -0.0218 C   0  0  0  0  0  0  0  0  0  0  0  0
    1.4868   -2.6794    1.3332 N   0  0  0  0  0  0  0  0  0  0  0  0
    1.5494   -4.0051    1.5676 C   0  0  0  0  0  0  0  0  0  0  0  0
    1.3905   -4.7901    0.6568 O   0  0  0  0  0  0  0  0  0  0  0  0
    1.8168   -4.5121    2.9613 C   0  0  0  0  0  0  0  0  0  0  0  0
    1.8355   -5.9409    2.9530 O   0  0  0  0  0  0  0  0  0  0  0  0
    2.0658   -6.5618    4.1397 C   0  0  0  0  0  0  0  0  0  0  0  0
    2.2641   -5.8109    5.2897 C   0  0  0  0  0  0  0  0  0  0  0  0
    2.4982   -6.4430    6.4954 C   0  0  0  0  0  0  0  0  0  0  0  0
    2.5353   -7.8236    6.5583 C   0  0  0  0  0  0  0  0  0  0  0  0
    2.3379   -8.5762    5.4128 C   0  0  0  0  0  0  0  0  0  0  0  0
    2.0974   -7.9467    4.2041 C   0  0  0  0  0  0  0  0  0  0  0  0
    2.3750   -9.9252    5.4761 F   0  0  0  0  0  0  0  0  0  0  0  0
    3.5855   -0.6321   -0.0368 O   0  0  0  0  0  0  0  0  0  0  0  0
    4.7724    0.1636   -0.0448 C   0  0  0  0  0  0  0  0  0  0  0  0
    5.9807   -0.7369   -0.0620 C   0  0  0  0  0  0  0  0  0  0  0  0
    5.8393   -1.9414   -0.0670 O   0  0  0  0  0  0  0  0  0  0  0  0
    7.2185   -0.2036   -0.0719 N   0  0  0  0  0  0  0  0  0  0  0  0
    8.3931   -1.0790   -0.0887 C   0  0  0  0  0  0  0  0  0  0  0  0
    9.6639   -0.2270   -0.0972 C   0  0  2  0  0  0  0  0  0  0  0  0
    9.6292    0.4803   -0.9258 H   0  0  0  0  0  0  0  0  0  0  0  0
   10.9034   -1.1368   -0.2367 C   0  0  0  0  0  0  0  0  0  0  0  0
   11.9212   -0.4558    0.7184 C   0  0  0  0  0  0  0  0  0  0  0  0
   10.9767    0.0694    1.8288 C   0  0  0  0  0  0  0  0  0  0  0  0
    9.7822    0.4817    1.1419 O   0  0  0  0  0  0  0  0  0  0  0  0
   -0.9596    1.9045    0.0259 H   0  0  0  0  0  0  0  0  0  0  0  0
    1.1527    3.1681    0.0080 H   0  0  0  0  0  0  0  0  0  0  0  0
    3.3038    1.9724   -0.0200 H   0  0  0  0  0  0  0  0  0  0  0  0
   -0.9260   -0.5563    0.0079 H   0  0  0  0  0  0  0  0  0  0  0  0
    0.2625   -2.5605   -0.3656 H   0  0  0  0  0  0  0  0  0  0  0  0
    2.0121   -2.5358   -0.6923 H   0  0  0  0  0  0  0  0  0  0  0  0
    1.6139   -2.0515    2.0615 H   0  0  0  0  0  0  0  0  0  0  0  0
    2.7811   -4.1381    3.3052 H   0  0  0  0  0  0  0  0  0  0  0  0
    1.0316   -4.1629    3.6318 H   0  0  0  0  0  0  0  0  0  0  0  0
    2.2357   -4.7323    5.2420 H   0  0  0  0  0  0  0  0  0  0  0  0
    2.6527   -5.8580    7.3900 H   0  0  0  0  0  0  0  0  0  0  0  0
    2.7189   -8.3158    7.5019 H   0  0  0  0  0  0  0  0  0  0  0  0
    1.9386   -8.5331    3.3112 H   0  0  0  0  0  0  0  0  0  0  0  0
    4.7790    0.7974   -0.9315 H   0  0  0  0  0  0  0  0  0  0  0  0
    4.7973    0.7880    0.8483 H   0  0  0  0  0  0  0  0  0  0  0  0
    7.3316    0.7598   -0.0679 H   0  0  0  0  0  0  0  0  0  0  0  0
    8.3865   -1.7128    0.7981 H   0  0  0  0  0  0  0  0  0  0  0  0
    8.3682   -1.7033   -0.9818 H   0  0  0  0  0  0  0  0  0  0  0  0
   10.6794   -2.1509    0.0942 H   0  0  0  0  0  0  0  0  0  0  0  0
   11.2725   -1.1349   -1.2623 H   0  0  0  0  0  0  0  0  0  0  0  0
   12.6314   -1.1804    1.1170 H   0  0  0  0  0  0  0  0  0  0  0  0
   12.4378    0.3652    0.2213 H   0  0  0  0  0  0  0  0  0  0  0  0
   10.7501   -0.7252    2.5397 H   0  0  0  0  0  0  0  0  0  0  0  0
   11.4299    0.9183    2.3407 H   0  0  0  0  0  0  0  0  0  0  0  0
  1  6  2  0  0  0  0
  1  2  1  0  0  0  0
  1 32  1  0  0  0  0
  2  3  2  0  0  0  0
  2 33  1  0  0  0  0
  3  4  1  0  0  0  0
  3 34  1  0  0  0  0
  4  5  2  0  0  0  0
  4 20  1  0  0  0  0
  5  6  1  0  0  0  0
  5  7  1  0  0  0  0
  6 35  1  0  0  0  0
  7  8  1  0  0  0  0
  7 36  1  0  0  0  0
  7 37  1  0  0  0  0
  8  9  1  0  0  0  0
  8 38  1  0  0  0  0
  9 10  2  0  0  0  0
  9 11  1  0  0  0  0
 11 12  1  0  0  0  0
 11 39  1  0  0  0  0
 11 40  1  0  0  0  0
 12 13  1  0  0  0  0
 13 18  2  0  0  0  0
 13 14  1  0  0  0  0
 14 15  2  0  0  0  0
 14 41  1  0  0  0  0
 15 16  1  0  0  0  0
 15 42  1  0  0  0  0
 16 17  2  0  0  0  0
 16 43  1  0  0  0  0
 17 18  1  0  0  0  0
 17 19  1  0  0  0  0
 18 44  1  0  0  0  0
 20 21  1  0  0  0  0
 21 22  1  0  0  0  0
 21 45  1  0  0  0  0
 21 46  1  0  0  0  0
 22 23  2  0  0  0  0
 22 24  1  0  0  0  0
 24 25  1  0  0  0  0
 24 47  1  0  0  0  0
 25 26  1  0  0  0  0
 25 48  1  0  0  0  0
 25 49  1  0  0  0  0
 26 27  1  6  0  0  0
 26 31  1  0  0  0  0
 26 28  1  0  0  0  0
 28 29  1  0  0  0  0
 28 50  1  0  0  0  0
 28 51  1  0  0  0  0
 29 30  1  0  0  0  0
 29 52  1  0  0  0  0
 29 53  1  0  0  0  0
 30 31  1  0  0  0  0
 30 54  1  0  0  0  0
 30 55  1  0  0  0  0
M  END
$$$$
ZINC32099203
 OpenBabel01252620473D

 21 22  0  0  0  0  0  0  0  0999 V2000
   -3.5999    6.0393    0.2742 C   0  0  0  0  0  0  0  0  0  0  0  0
   -2.4291    5.3456    0.2544 C   0  0  0  0  0  0  0  0  0  0  0  0
   -2.4485    3.9435    0.1387 C   0  0  0  0  0  0  0  0  0  0  0  0
   -3.6995    3.2778    0.0441 C   0  0  0  0  0  0  0  0  0  0  0  0
   -4.8872    4.0263    0.0679 C   0  0  0  0  0  0  0  0  0  0  0  0
   -4.8268    5.3835    0.1816 C   0  0  0  0  0  0  0  0  0  0  0  0
   -6.4277    6.3895    0.2135 Br  0  0  0  0  0  0  0  0  0  0  0  0
   -3.7259    1.8765   -0.0717 C   0  0  0  0  0  0  0  0  0  0  0  0
   -2.5132    1.2002   -0.0929 C   0  0  0  0  0  0  0  0  0  0  0  0
   -1.3076    1.9341    0.0113 C   0  0  0  0  0  0  0  0  0  0  0  0
   -1.3117    3.2452    0.1183 N   0  0  0  0  0  0  0  0  0  0  0  0
   -0.0138    1.2112   -0.0066 C   0  0  0  0  0  0  0  0  0  0  0  0
    0.4295    0.7859   -1.0538 O   0  0  0  0  0  0  0  0  0  0  0  0
    0.6727    1.0310    1.1379 O   0  0  0  0  0  1  0  0  0  0  0  0
   -2.4821   -0.2709   -0.2181 C   0  0  0  0  0  0  0  0  0  0  0  0
   -1.4260   -0.8654   -0.1346 O   0  0  0  0  0  0  0  0  0  0  0  0
   -3.6249   -0.9537   -0.4251 O   0  0  0  0  0  1  0  0  0  0  0  0
   -3.5783    7.1154    0.3632 H   0  0  0  0  0  0  0  0  0  0  0  0
   -1.4877    5.8699    0.3279 H   0  0  0  0  0  0  0  0  0  0  0  0
   -5.8435    3.5295   -0.0031 H   0  0  0  0  0  0  0  0  0  0  0  0
   -4.6617    1.3424   -0.1455 H   0  0  0  0  0  0  0  0  0  0  0  0
  1  6  2  0  0  0  0
  1  2  1  0  0  0  0
  1 18  1  0  0  0  0
  2  3  2  0  0  0  0
  2 19  1  0  0  0  0
  3 11  1  0  0  0  0
  3  4  1  0  0  0  0
  4  5  2  0  0  0  0
  4  8  1  0  0  0  0
  5  6  1  0  0  0  0
  5 20  1  0  0  0  0
  6  7  1  0  0  0  0
  8  9  2  0  0  0  0
  8 21  1  0  0  0  0
  9 10  1  0  0  0  0
  9 15  1  0  0  0  0
 10 11  2  0  0  0  0
 10 12  1  0  0  0  0
 12 13  2  0  0  0  0
 12 14  1  0  0  0  0
 15 16  2  0  0  0  0
 15 17  1  0  0  0  0
M  END
$$$$
ZINC21946031
 OpenBabel01252620473D

 49 50  0  0  0  0  0  0  0  0999 V2000
   -7.1687    0.9093   -0.7396 C   0  0  0  0  0  0  0  0  0  0  0  0
   -7.5492    2.1673   -1.4772 C   0  0  0  0  0  0  0  0  0  0  0  0
   -8.3052    2.0990   -2.6368 C   0  0  0  0  0  0  0  0  0  0  0  0
   -8.6338    3.2798   -3.2841 C   0  0  0  0  0  0  0  0  0  0  0  0
   -8.2186    4.4296   -2.7790 N   0  0  0  0  0  0  0  0  0  0  0  0
   -7.4971    4.4602   -1.6681 C   0  0  0  0  0  0  0  0  0  0  0  0
   -7.1615    3.3496   -1.0283 N   0  0  0  0  0  0  0  0  0  0  0  0
   -7.0793    5.6810   -1.1673 N   0  0  0  0  0  2  0  0  0  0  0  0
   -6.4794    5.7826    0.3729 S   0  0  0  0  0  0  0  0  0  0  0  0
   -7.3792    5.0659    1.2073 O   0  0  0  0  0  0  0  0  0  0  0  0
   -6.1591    7.1491    0.5946 O   0  0  0  0  0  0  0  0  0  0  0  0
   -4.9560    4.8976    0.3980 C   0  0  0  0  0  0  0  0  0  0  0  0
   -3.7921    5.5159   -0.0211 C   0  0  0  0  0  0  0  0  0  0  0  0
   -2.5963    4.8256   -0.0023 C   0  0  0  0  0  0  0  0  0  0  0  0
   -2.5634    3.5081    0.4379 C   0  0  0  0  0  0  0  0  0  0  0  0
   -3.7358    2.8880    0.8524 C   0  0  0  0  0  0  0  0  0  0  0  0
   -4.9269    3.5866    0.8372 C   0  0  0  0  0  0  0  0  0  0  0  0
   -1.3560    2.8069    0.4583 N   0  0  0  0  0  0  0  0  0  0  0  0
   -1.2965    1.5548    1.0277 C   0  0  0  0  0  0  0  0  0  0  0  0
   -0.9132    0.4881    0.2823 C   0  0  0  0  0  0  0  0  0  0  0  0
   -0.4984    0.6782   -1.1069 C   0  0  0  0  0  0  0  0  0  0  0  0
   -0.5977    1.7731   -1.6268 O   0  0  0  0  0  0  0  0  0  0  0  0
   -0.0056   -0.3612   -1.8120 O   0  0  0  0  0  0  0  0  0  0  0  0
    0.3799   -0.1036   -3.1637 C   0  0  0  0  0  0  0  0  0  0  0  0
   -1.6517    1.3721    2.4564 C   0  0  0  0  0  0  0  0  0  0  0  0
   -1.6735    0.2576    2.9391 O   0  0  0  0  0  0  0  0  0  0  0  0
   -1.9501    2.4427    3.2188 N   0  0  0  0  0  0  0  0  0  0  0  0
   -2.1857    2.2763    4.6551 C   0  0  0  0  0  0  0  0  0  0  0  0
   -9.4545    3.2539   -4.5478 C   0  0  0  0  0  0  0  0  0  0  0  0
   -7.5822    0.0364   -1.2660 H   0  0  0  0  0  0  0  0  0  0  0  0
   -7.5736    0.9469    0.2825 H   0  0  0  0  0  0  0  0  0  0  0  0
   -6.0726    0.8265   -0.6970 H   0  0  0  0  0  0  0  0  0  0  0  0
   -8.6309    1.1464   -3.0278 H   0  0  0  0  0  0  0  0  0  0  0  0
   -3.8184    6.5400   -0.3631 H   0  0  0  0  0  0  0  0  0  0  0  0
   -1.6876    5.3093   -0.3290 H   0  0  0  0  0  0  0  0  0  0  0  0
   -3.7146    1.8627    1.1909 H   0  0  0  0  0  0  0  0  0  0  0  0
   -5.8377    3.1069    1.1641 H   0  0  0  0  0  0  0  0  0  0  0  0
   -0.4523    3.2549    0.0194 H   0  0  0  0  0  0  0  0  0  0  0  0
   -0.9145   -0.5198    0.7230 H   0  0  0  0  0  0  0  0  0  0  0  0
    0.7614   -1.0295   -3.6190 H   0  0  0  0  0  0  0  0  0  0  0  0
    1.1670    0.6646   -3.1804 H   0  0  0  0  0  0  0  0  0  0  0  0
   -0.4920    0.2523   -3.7321 H   0  0  0  0  0  0  0  0  0  0  0  0
   -2.0167    3.4414    2.7626 H   0  0  0  0  0  0  0  0  0  0  0  0
   -2.4135    3.2539    5.1050 H   0  0  0  0  0  0  0  0  0  0  0  0
   -1.2859    1.8558    5.1279 H   0  0  0  0  0  0  0  0  0  0  0  0
   -3.0346    1.5943    4.8108 H   0  0  0  0  0  0  0  0  0  0  0  0
   -9.6079    4.2824   -4.9065 H   0  0  0  0  0  0  0  0  0  0  0  0
  -10.4295    2.7880   -4.3423 H   0  0  0  0  0  0  0  0  0  0  0  0
   -8.9251    2.6724   -5.3169 H   0  0  0  0  0  0  0  0  0  0  0  0
  1  2  1  0  0  0  0
  1 30  1  0  0  0  0
  1 31  1  0  0  0  0
  1 32  1  0  0  0  0
  2  7  2  0  0  0  0
  2  3  1  0  0  0  0
  3  4  2  0  0  0  0
  3 33  1  0  0  0  0
  4  5  1  0  0  0  0
  4 29  1  0  0  0  0
  5  6  2  0  0  0  0
  6  7  1  0  0  0  0
  6  8  1  0  0  0  0
  8  9  1  0  0  0  0
  9 10  2  0  0  0  0
  9 11  2  0  0  0  0
  9 12  1  0  0  0  0
 12 17  2  0  0  0  0
 12 13  1  0  0  0  0
 13 14  2  0  0  0  0
 13 34  1  0  0  0  0
 14 15  1  0  0  0  0
 14 35  1  0  0  0  0
 15 16  2  0  0  0  0
 15 18  1  0  0  0  0
 16 17  1  0  0  0  0
 16 36  1  0  0  0  0
 17 37  1  0  0  0  0
 18 19  1  0  0  0  0
 18 38  1  0  0  0  0
 19 20  2  0  0  0  0
 19 25  1  0  0  0  0
 20 21  1  0  0  0  0
 20 39  1  0  0  0  0
 21 22  2  0  0  0  0
 21 23  1  0  0  0  0
 23 24  1  0  0  0  0
 24 40  1  0  0  0  0
 24 41  1  0  0  0  0
 24 42  1  0  0  0  0
 25 26  2  0  0  0  0
 25 27  1  0  0  0  0
 27 28  1  0  0  0  0
 27 43  1  0  0  0  0
 28 44  1  0  0  0  0
 28 45  1  0  0  0  0
 28 46  1  0  0  0  0
 29 47  1  0  0  0  0
 29 48  1  0  0  0  0
 29 49  1  0  0  0  0
M  END
$$$$
ZINC48553813
 OpenBabel01252620473D

 47 48  0  0  0  0  0  0  0  0999 V2000
   -6.1891   -2.7133    6.0295 C   0  0  0  0  0  0  0  0  0  0  0  0
   -5.2631   -3.5039    5.1030 C   0  0  0  0  0  0  0  0  0  0  0  0
   -3.9423   -3.7862    5.8219 C   0  0  0  0  0  0  0  0  0  0  0  0
   -3.0163   -4.5768    4.8954 C   0  0  0  0  0  0  0  0  0  0  0  0
   -1.4503   -4.9115    5.7477 S   0  0  0  0  0  0  0  0  0  0  0  0
   -0.7338   -3.7009    5.9483 O   0  0  0  0  0  0  0  0  0  0  0  0
   -1.6622   -5.8147    6.8241 O   0  0  0  0  0  0  0  0  0  0  0  0
   -0.5440   -5.7628    4.6540 N   0  0  0  0  0  0  0  0  0  0  0  0
    0.6581   -6.1595    4.9710 C   0  0  0  0  0  0  0  0  0  0  0  0
    1.1643   -5.8751    6.1938 O   0  5  0  0  0  0  0  0  0  0  0  0
    1.4606   -6.9132    4.0025 C   0  0  0  0  0  0  0  0  0  0  0  0
    2.7465   -7.2070    4.2768 C   0  0  0  0  0  0  0  0  0  0  0  0
    3.4162   -6.5765    5.4245 C   0  0  0  0  0  0  0  0  0  0  0  0
    3.2787   -5.2036    5.6521 C   0  0  0  0  0  0  0  0  0  0  0  0
    3.9091   -4.6196    6.7294 C   0  0  0  0  0  0  0  0  0  0  0  0
    4.6794   -5.3863    7.5885 C   0  0  0  0  0  0  0  0  0  0  0  0
    4.8242   -6.7436    7.3752 C   0  0  0  0  0  0  0  0  0  0  0  0
    4.1923   -7.3498    6.3011 C   0  0  0  0  0  0  0  0  0  0  0  0
    4.3286   -8.6844    6.0944 O   0  0  0  0  0  0  0  0  0  0  0  0
    5.1340   -9.4065    7.0281 C   0  0  0  0  0  0  0  0  0  0  0  0
    5.1692  -10.8624    6.6405 C   0  0  0  0  0  0  0  0  0  0  0  0
    4.5077  -11.3223    5.5477 C   0  0  0  0  0  0  0  0  0  0  0  0
    4.9205  -13.0581    5.6195 S   0  0  0  0  0  0  0  0  0  0  0  0
    5.8726  -13.0120    7.0067 C   0  0  0  0  0  0  0  0  0  0  0  0
    5.8480  -11.7467    7.3439 N   0  0  0  0  0  0  0  0  0  0  0  0
    6.5852  -14.1497    7.6913 C   0  0  0  0  0  0  0  0  0  0  0  0
   -5.7139   -1.7704    6.2999 H   0  0  0  0  0  0  0  0  0  0  0  0
   -7.1301   -2.5122    5.5174 H   0  0  0  0  0  0  0  0  0  0  0  0
   -6.3832   -3.2941    6.9312 H   0  0  0  0  0  0  0  0  0  0  0  0
   -5.7384   -4.4469    4.8327 H   0  0  0  0  0  0  0  0  0  0  0  0
   -5.0691   -2.9231    4.2013 H   0  0  0  0  0  0  0  0  0  0  0  0
   -3.4671   -2.8433    6.0923 H   0  0  0  0  0  0  0  0  0  0  0  0
   -4.1363   -4.3670    6.7236 H   0  0  0  0  0  0  0  0  0  0  0  0
   -3.4915   -5.5198    4.6251 H   0  0  0  0  0  0  0  0  0  0  0  0
   -2.8223   -3.9960    3.9937 H   0  0  0  0  0  0  0  0  0  0  0  0
    1.0209   -7.2329    3.0693 H   0  0  0  0  0  0  0  0  0  0  0  0
    3.2855   -7.9055    3.6540 H   0  0  0  0  0  0  0  0  0  0  0  0
    2.6798   -4.6019    4.9846 H   0  0  0  0  0  0  0  0  0  0  0  0
    3.8025   -3.5593    6.9046 H   0  0  0  0  0  0  0  0  0  0  0  0
    5.1701   -4.9200    8.4300 H   0  0  0  0  0  0  0  0  0  0  0  0
    5.4267   -7.3341    8.0495 H   0  0  0  0  0  0  0  0  0  0  0  0
    6.1470   -9.0042    7.0216 H   0  0  0  0  0  0  0  0  0  0  0  0
    4.7099   -9.3067    8.0272 H   0  0  0  0  0  0  0  0  0  0  0  0
    3.9003  -10.7867    4.8331 H   0  0  0  0  0  0  0  0  0  0  0  0
    6.4008  -15.0750    7.1454 H   0  0  0  0  0  0  0  0  0  0  0  0
    7.6561  -13.9475    7.7124 H   0  0  0  0  0  0  0  0  0  0  0  0
    6.2141  -14.2495    8.7114 H   0  0  0  0  0  0  0  0  0  0  0  0
  1  2  1  0  0  0  0
  1 27  1  0  0  0  0
  1 28  1  0  0  0  0
  1 29  1  0  0  0  0
  2  3  1  0  0  0  0
  2 30  1  0  0  0  0
  2 31  1  0  0  0  0
  3  4  1  0  0  0  0
  3 32  1  0  0  0  0
  3 33  1  0  0  0  0
  4  5  1  0  0  0  0
  4 34  1  0  0  0  0
  4 35  1  0  0  0  0
  5  6  2  0  0  0  0
  5  7  2  0  0  0  0
  5  8  1  0  0  0  0
  8  9  2  0  0  0  0
  9 10  1  0  0  0  0
  9 11  1  0  0  0  0
 11 12  2  0  0  0  0
 11 36  1  0  0  0  0
 12 13  1  0  0  0  0
 12 37  1  0  0  0  0
 13 18  2  0  0  0  0
 13 14  1  0  0  0  0
 14 15  2  0  0  0  0
 14 38  1  0  0  0  0
 15 16  1  0  0  0  0
 15 39  1  0  0  0  0
 16 17  2  0  0  0  0
 16 40  1  0  0  0  0
 17 18  1  0  0  0  0
 17 41  1  0  0  0  0
 18 19  1  0  0  0  0
 19 20  1  0  0  0  0
 20 21  1  0  0  0  0
 20 42  1  0  0  0  0
 20 43  1  0  0  0  0
 21 25  1  0  0  0  0
 21 22  2  0  0  0  0
 22 23  1  0  0  0  0
 22 44  1  0  0  0  0
 23 24  1  0  0  0  0
 24 25  2  0  0  0  0
 24 26  1  0  0  0  0
 26 45  1  0  0  0  0
 26 46  1  0  0  0  0
 26 47  1  0  0  0  0
M  CHG  1  10  -1
M  END
$$$$
ZINC41917671
 OpenBabel01252620473D

 26 27  0  0  1  0  0  0  0  0999 V2000
    0.1890    1.5145    0.0024 C   0  0  0  0  0  0  0  0  0  0  0  0
    0.0021   -0.0041    0.0020 C   0  0  1  0  0  0  0  0  0  0  0  0
    0.6632   -0.5919    1.2220 C   0  0  0  0  0  0  0  0  0  0  0  0
    1.3057    0.2289    2.1366 C   0  0  0  0  0  0  0  0  0  0  0  0
    1.9000   -0.3557    3.2442 C   0  0  0  0  0  0  0  0  0  0  0  0
    1.8328   -1.7277    3.3991 C   0  0  0  0  0  0  0  0  0  0  0  0
    1.2135   -2.4774    2.5086 N   0  0  0  0  0  0  0  0  0  0  0  0
    0.6319   -1.9550    1.4464 C   0  0  0  0  0  0  0  0  0  0  0  0
   -1.4693   -0.3290    0.0223 C   0  0  0  0  0  0  0  0  0  0  0  0
   -1.8749   -1.3523   -0.5020 O   0  0  0  0  0  0  0  0  0  0  0  0
   -2.2542    0.4314    0.5629 O   0  0  0  0  0  1  0  0  0  0  0  0
    0.6108   -0.5707   -1.2041 N   0  0  0  0  0  0  0  0  0  0  0  0
    0.1125   -0.4936   -2.4565 C   0  0  0  0  0  0  0  0  0  0  0  0
    0.9694   -1.1397   -3.2816 C   0  0  0  0  0  0  0  0  0  0  0  0
    2.0271   -1.6280   -2.5067 C   0  0  0  0  0  0  0  0  0  0  0  0
    1.8156   -1.2830   -1.2623 N   0  0  0  0  0  0  0  0  0  0  0  0
    0.7714   -1.3465   -5.1508 Br  0  0  0  0  0  0  0  0  0  0  0  0
    1.2533    1.7495   -0.0123 H   0  0  0  0  0  0  0  0  0  0  0  0
   -0.2891    1.9396   -0.8800 H   0  0  0  0  0  0  0  0  0  0  0  0
   -0.2638    1.9361    0.8997 H   0  0  0  0  0  0  0  0  0  0  0  0
    1.3425    1.2982    1.9893 H   0  0  0  0  0  0  0  0  0  0  0  0
    2.4093    0.2530    3.9767 H   0  0  0  0  0  0  0  0  0  0  0  0
    2.2933   -2.1909    4.2592 H   0  0  0  0  0  0  0  0  0  0  0  0
    0.1294   -2.6006    0.7414 H   0  0  0  0  0  0  0  0  0  0  0  0
   -0.8054   -0.0047   -2.7478 H   0  0  0  0  0  0  0  0  0  0  0  0
    2.8739   -2.1894   -2.8729 H   0  0  0  0  0  0  0  0  0  0  0  0
  1  2  1  0  0  0  0
  1 18  1  0  0  0  0
  1 19  1  0  0  0  0
  1 20  1  0  0  0  0
  2  3  1  0  0  0  0
  2  9  1  1  0  0  0
  2 12  1  0  0  0  0
  3  8  2  0  0  0  0
  3  4  1  0  0  0  0
  4  5  2  0  0  0  0
  4 21  1  0  0  0  0
  5  6  1  0  0  0  0
  5 22  1  0  0  0  0
  6  7  2  0  0  0  0
  6 23  1  0  0  0  0
  7  8  1  0  0  0  0
  8 24  1  0  0  0  0
  9 10  2  0  0  0  0
  9 11  1  0  0  0  0
 12 16  1  0  0  0  0
 12 13  1  0  0  0  0
 13 14  2  0  0  0  0
 13 25  1  0  0  0  0
 14 15  1  0  0  0  0
 14 17  1  0  0  0  0
 15 16  2  0  0  0  0
 15 26  1  0  0  0  0
M  END
$$$$
ZINC64381320
 OpenBabel01252620473D

 49 50  0  0  0  0  0  0  0  0999 V2000
    1.6390    2.4998    0.8441 C   0  0  0  0  0  0  0  0  0  0  0  0
    1.4733    0.9916    0.6473 C   0  0  0  0  0  0  0  0  0  0  0  0
    2.0074    0.2550    1.8774 C   0  0  0  0  0  0  0  0  0  0  0  0
    1.8109   -1.5331    1.6441 S   0  0  0  0  0  0  0  0  0  0  0  0
    0.4325   -1.8785    1.6461 O   0  0  0  0  0  0  0  0  0  0  0  0
    2.6704   -1.9889    0.6083 O   0  0  0  0  0  0  0  0  0  0  0  0
    2.4186   -2.2121    3.0269 N   0  0  0  0  0  2  0  0  0  0  0  0
    2.4213   -3.6003    3.1804 C   0  0  0  0  0  0  0  0  0  0  0  0
    1.9193   -4.4129    2.1707 C   0  0  0  0  0  0  0  0  0  0  0  0
    1.9211   -5.7860    2.3220 C   0  0  0  0  0  0  0  0  0  0  0  0
    2.4221   -6.3563    3.4765 C   0  0  0  0  0  0  0  0  0  0  0  0
    2.9254   -5.5497    4.4898 C   0  0  0  0  0  0  0  0  0  0  0  0
    2.9303   -4.1700    4.3387 C   0  0  0  0  0  0  0  0  0  0  0  0
    3.4816   -3.2923    5.4327 C   0  0  0  0  0  0  0  0  0  0  0  0
    3.4308   -6.1269    5.6570 N   0  0  0  0  0  0  0  0  0  0  0  0
    4.2425   -7.5684    5.5835 S   0  0  0  0  0  0  0  0  0  0  0  0
    4.7485   -7.8166    6.8880 O   0  0  0  0  0  0  0  0  0  0  0  0
    3.3869   -8.4825    4.9116 O   0  0  0  0  0  0  0  0  0  0  0  0
    5.6406   -7.3263    4.5387 C   0  0  0  0  0  0  0  0  0  0  0  0
    5.7330   -8.0068    3.3388 C   0  0  0  0  0  0  0  0  0  0  0  0
    6.8296   -7.8169    2.5193 C   0  0  0  0  0  0  0  0  0  0  0  0
    7.8340   -6.9461    2.8993 C   0  0  0  0  0  0  0  0  0  0  0  0
    7.7412   -6.2650    4.0984 C   0  0  0  0  0  0  0  0  0  0  0  0
    6.6421   -6.4518    4.9161 C   0  0  0  0  0  0  0  0  0  0  0  0
    6.5384   -5.7053    6.2211 C   0  0  0  0  0  0  0  0  0  0  0  0
    9.0302   -6.7397    2.0062 C   0  0  0  0  0  0  0  0  0  0  0  0
    2.6949    2.7349    0.9784 H   0  0  0  0  0  0  0  0  0  0  0  0
    1.2585    3.0245   -0.0322 H   0  0  0  0  0  0  0  0  0  0  0  0
    1.0817    2.8145    1.7265 H   0  0  0  0  0  0  0  0  0  0  0  0
    0.4174    0.7565    0.5131 H   0  0  0  0  0  0  0  0  0  0  0  0
    2.0306    0.6769   -0.2350 H   0  0  0  0  0  0  0  0  0  0  0  0
    3.0632    0.4901    2.0117 H   0  0  0  0  0  0  0  0  0  0  0  0
    1.4501    0.5697    2.7597 H   0  0  0  0  0  0  0  0  0  0  0  0
    1.5270   -3.9703    1.2670 H   0  0  0  0  0  0  0  0  0  0  0  0
    1.5298   -6.4151    1.5362 H   0  0  0  0  0  0  0  0  0  0  0  0
    2.4221   -7.4301    3.5917 H   0  0  0  0  0  0  0  0  0  0  0  0
    2.6832   -3.0344    6.1285 H   0  0  0  0  0  0  0  0  0  0  0  0
    4.2689   -3.8263    5.9648 H   0  0  0  0  0  0  0  0  0  0  0  0
    3.8914   -2.3815    4.9961 H   0  0  0  0  0  0  0  0  0  0  0  0
    3.3062   -5.6834    6.5106 H   0  0  0  0  0  0  0  0  0  0  0  0
    4.9484   -8.6871    3.0420 H   0  0  0  0  0  0  0  0  0  0  0  0
    6.9022   -8.3491    1.5823 H   0  0  0  0  0  0  0  0  0  0  0  0
    8.5259   -5.5850    4.3953 H   0  0  0  0  0  0  0  0  0  0  0  0
    6.9157   -6.3320    7.0292 H   0  0  0  0  0  0  0  0  0  0  0  0
    7.1289   -4.7908    6.1645 H   0  0  0  0  0  0  0  0  0  0  0  0
    5.4956   -5.4530    6.4135 H   0  0  0  0  0  0  0  0  0  0  0  0
    8.8310   -5.9203    1.3156 H   0  0  0  0  0  0  0  0  0  0  0  0
    9.9011   -6.4979    2.6154 H   0  0  0  0  0  0  0  0  0  0  0  0
    9.2237   -7.6518    1.4416 H   0  0  0  0  0  0  0  0  0  0  0  0
  1  2  1  0  0  0  0
  1 27  1  0  0  0  0
  1 28  1  0  0  0  0
  1 29  1  0  0  0  0
  2  3  1  0  0  0  0
  2 30  1  0  0  0  0
  2 31  1  0  0  0  0
  3  4  1  0  0  0  0
  3 32  1  0  0  0  0
  3 33  1  0  0  0  0
  4  5  2  0  0  0  0
  4  6  2  0  0  0  0
  4  7  1  0  0  0  0
  7  8  1  0  0  0  0
  8 13  2  0  0  0  0
  8  9  1  0  0  0  0
  9 10  2  0  0  0  0
  9 34  1  0  0  0  0
 10 11  1  0  0  0  0
 10 35  1  0  0  0  0
 11 12  2  0  0  0  0
 11 36  1  0  0  0  0
 12 13  1  0  0  0  0
 12 15  1  0  0  0  0
 13 14  1  0  0  0  0
 14 37  1  0  0  0  0
 14 38  1  0  0  0  0
 14 39  1  0  0  0  0
 15 16  1  0  0  0  0
 15 40  1  0  0  0  0
 16 17  2  0  0  0  0
 16 18  2  0  0  0  0
 16 19  1  0  0  0  0
 19 24  2  0  0  0  0
 19 20  1  0  0  0  0
 20 21  2  0  0  0  0
 20 41  1  0  0  0  0
 21 22  1  0  0  0  0
 21 42  1  0  0  0  0
 22 23  2  0  0  0  0
 22 26  1  0  0  0  0
 23 24  1  0  0  0  0
 23 43  1  0  0  0  0
 24 25  1  0  0  0  0
 25 44  1  0  0  0  0
 25 45  1  0  0  0  0
 25 46  1  0  0  0  0
 26 47  1  0  0  0  0
 26 48  1  0  0  0  0
 26 49  1  0  0  0  0
M  END
$$$$
ZINC09424024
 OpenBabel01252620473D

 49 51  0  0  1  0  0  0  0  0999 V2000
    0.0187    1.1430    0.0483 C   0  0  0  0  0  0  0  0  0  0  0  0
    1.1942    1.8694    0.0177 C   0  0  0  0  0  0  0  0  0  0  0  0
    1.1521    3.2496   -0.0680 C   0  0  0  0  0  0  0  0  0  0  0  0
   -0.0667    3.9019   -0.1232 C   0  0  0  0  0  0  0  0  0  0  0  0
   -1.2415    3.1744   -0.0926 C   0  0  0  0  0  0  0  0  0  0  0  0
   -1.1988    1.7949   -0.0126 C   0  0  0  0  0  0  0  0  0  0  0  0
   -2.4800    1.0019    0.0139 C   0  0  2  0  0  0  0  0  0  0  0  0
   -2.2357   -0.0378    0.2771 H   0  0  0  0  0  0  0  0  0  0  0  0
   -3.1813    1.1032   -1.3205 C   0  0  0  0  0  0  0  0  0  0  0  0
   -4.3860    1.6744   -1.0863 C   0  0  0  0  0  0  0  0  0  0  0  0
   -4.5155    1.9590    0.3586 C   0  0  0  0  0  0  0  0  0  0  0  0
   -5.4839    2.4708    0.8843 O   0  0  0  0  0  0  0  0  0  0  0  0
   -3.4028    1.5671    1.0053 N   0  0  0  0  0  0  0  0  0  0  0  0
   -3.1562    1.6833    2.4447 C   0  0  0  0  0  0  0  0  0  0  0  0
   -2.4908    3.0288    2.7412 C   0  0  0  0  0  0  0  0  0  0  0  0
   -3.3969    4.0879    2.4262 O   0  0  0  0  0  0  0  0  0  0  0  0
   -2.8706    5.3943    2.6682 C   0  0  0  0  0  0  0  0  0  0  0  0
   -3.9205    6.4437    2.2977 C   0  0  0  0  0  0  0  0  0  0  0  0
   -5.0450    6.3215    3.1709 O   0  0  0  0  0  0  0  0  0  0  0  0
   -5.3224    1.9421   -2.0251 O   0  5  0  0  0  0  0  0  0  0  0  0
   -2.6579    0.6674   -2.6185 C   0  0  0  0  0  0  0  0  0  0  0  0
   -2.4163    1.4880   -3.4836 O   0  0  0  0  0  0  0  0  0  0  0  0
   -2.4236   -0.7695   -2.8765 C   0  0  0  0  0  0  0  0  0  0  0  0
   -2.8024   -1.7231   -1.9291 C   0  0  0  0  0  0  0  0  0  0  0  0
   -2.5865   -3.0623   -2.1790 C   0  0  0  0  0  0  0  0  0  0  0  0
   -1.9848   -3.4610   -3.3597 C   0  0  0  0  0  0  0  0  0  0  0  0
   -1.6017   -2.5209   -4.3003 C   0  0  0  0  0  0  0  0  0  0  0  0
   -1.8173   -1.1789   -4.0661 C   0  0  0  0  0  0  0  0  0  0  0  0
   -1.7503   -4.8995   -3.6180 N   0  0  0  0  0  4  0  0  0  0  0  0
   -1.2213   -5.2534   -4.6565 O   0  0  0  0  0  0  0  0  0  0  0  0
   -2.0863   -5.7292   -2.7921 O   0  5  0  0  0  0  0  0  0  0  0  0
    2.6282    4.1626   -0.1069 Cl  0  0  0  0  0  0  0  0  0  0  0  0
    0.0515    0.0656    0.1152 H   0  0  0  0  0  0  0  0  0  0  0  0
    2.1454    1.3596    0.0605 H   0  0  0  0  0  0  0  0  0  0  0  0
   -0.1002    4.9793   -0.1897 H   0  0  0  0  0  0  0  0  0  0  0  0
   -2.1930    3.6835   -0.1356 H   0  0  0  0  0  0  0  0  0  0  0  0
   -4.1113    1.6192    2.9867 H   0  0  0  0  0  0  0  0  0  0  0  0
   -2.4944    0.8673    2.7704 H   0  0  0  0  0  0  0  0  0  0  0  0
   -2.2244    3.0791    3.8073 H   0  0  0  0  0  0  0  0  0  0  0  0
   -1.5814    3.1305    2.1308 H   0  0  0  0  0  0  0  0  0  0  0  0
   -2.6122    5.4941    3.7327 H   0  0  0  0  0  0  0  0  0  0  0  0
   -1.9691    5.5456    2.0563 H   0  0  0  0  0  0  0  0  0  0  0  0
   -3.4855    7.4490    2.3985 H   0  0  0  0  0  0  0  0  0  0  0  0
   -4.2447    6.2870    1.2583 H   0  0  0  0  0  0  0  0  0  0  0  0
   -5.9061    6.9963    3.0565 H   0  0  0  0  0  0  0  0  0  0  0  0
   -3.2677   -1.4130   -1.0052 H   0  0  0  0  0  0  0  0  0  0  0  0
   -2.8834   -3.8012   -1.4493 H   0  0  0  0  0  0  0  0  0  0  0  0
   -1.1333   -2.8388   -5.2200 H   0  0  0  0  0  0  0  0  0  0  0  0
   -1.5175   -0.4462   -4.8008 H   0  0  0  0  0  0  0  0  0  0  0  0
  1  6  2  0  0  0  0
  1  2  1  0  0  0  0
  1 33  1  0  0  0  0
  2  3  2  0  0  0  0
  2 34  1  0  0  0  0
  3  4  1  0  0  0  0
  3 32  1  0  0  0  0
  4  5  2  0  0  0  0
  4 35  1  0  0  0  0
  5  6  1  0  0  0  0
  5 36  1  0  0  0  0
  6  7  1  0  0  0  0
  7  8  1  1  0  0  0
  7 13  1  0  0  0  0
  7  9  1  0  0  0  0
  9 10  2  0  0  0  0
  9 21  1  0  0  0  0
 10 11  1  0  0  0  0
 10 20  1  0  0  0  0
 11 12  2  0  0  0  0
 11 13  1  0  0  0  0
 13 14  1  0  0  0  0
 14 15  1  0  0  0  0
 14 37  1  0  0  0  0
 14 38  1  0  0  0  0
 15 16  1  0  0  0  0
 15 39  1  0  0  0  0
 15 40  1  0  0  0  0
 16 17  1  0  0  0  0
 17 18  1  0  0  0  0
 17 41  1  0  0  0  0
 17 42  1  0  0  0  0
 18 19  1  0  0  0  0
 18 43  1  0  0  0  0
 18 44  1  0  0  0  0
 19 45  1  0  0  0  0
 21 22  2  0  0  0  0
 21 23  1  0  0  0  0
 23 28  2  0  0  0  0
 23 24  1  0  0  0  0
 24 25  2  0  0  0  0
 24 46  1  0  0  0  0
 25 26  1  0  0  0  0
 25 47  1  0  0  0  0
 26 27  2  0  0  0  0
 26 29  1  0  0  0  0
 27 28  1  0  0  0  0
 27 48  1  0  0  0  0
 28 49  1  0  0  0  0
 29 30  2  0  0  0  0
 29 31  1  0  0  0  0
M  CHG  2  20  -1  31  -1
M  END
$$$$
ZINC62824069
 OpenBabel01252620473D

 26 27  0  0  0  0  0  0  0  0999 V2000
   -0.0298    1.0031   -0.6487 C   0  0  0  0  0  0  0  0  0  0  0  0
    1.1191    1.7679   -0.6556 C   0  0  0  0  0  0  0  0  0  0  0  0
    2.2688    1.3026   -0.0314 C   0  0  0  0  0  0  0  0  0  0  0  0
    2.2554    0.0510    0.6065 C   0  0  0  0  0  0  0  0  0  0  0  0
    1.0834   -0.7117    0.6051 C   0  0  0  0  0  0  0  0  0  0  0  0
   -0.0473   -0.2326   -0.0204 C   0  0  0  0  0  0  0  0  0  0  0  0
   -1.8020   -1.3772   -0.0210 I   0  0  0  0  0  0  0  0  0  0  0  0
    3.4668   -0.4543    1.2714 C   0  0  0  0  0  0  0  0  0  0  0  0
    3.4808   -1.5837    1.7415 O   0  0  0  0  0  0  0  0  0  0  0  0
    4.4603    0.2550    1.3541 O   0  0  0  0  0  1  0  0  0  0  0  0
    3.4278    2.0714   -0.0381 N   0  0  0  0  0  0  0  0  0  0  0  0
    3.3475    3.4104   -0.1690 C   0  0  0  0  0  0  0  0  0  0  0  0
    2.2615    3.9560   -0.1790 O   0  0  0  0  0  0  0  0  0  0  0  0
    4.5809    4.2158   -0.3006 C   0  0  0  0  0  0  0  0  0  0  0  0
    4.5006    5.6074   -0.4310 C   0  0  0  0  0  0  0  0  0  0  0  0
    5.6826    6.3173   -0.5512 C   0  0  0  0  0  0  0  0  0  0  0  0
    6.8797    5.6040   -0.5351 C   0  0  0  0  0  0  0  0  0  0  0  0
    8.0607    6.2587   -0.6495 O   0  5  0  0  0  0  0  0  0  0  0  0
    6.8622    4.2836   -0.4073 N   0  0  0  0  0  0  0  0  0  0  0  0
    5.7684    3.6222   -0.2901 N   0  0  0  0  0  0  0  0  0  0  0  0
   -0.9225    1.3716   -1.1323 H   0  0  0  0  0  0  0  0  0  0  0  0
    1.1240    2.7294   -1.1475 H   0  0  0  0  0  0  0  0  0  0  0  0
    1.0645   -1.6751    1.0928 H   0  0  0  0  0  0  0  0  0  0  0  0
    4.2939    1.6439    0.0516 H   0  0  0  0  0  0  0  0  0  0  0  0
    3.5455    6.1115   -0.4380 H   0  0  0  0  0  0  0  0  0  0  0  0
    5.6774    7.3923   -0.6548 H   0  0  0  0  0  0  0  0  0  0  0  0
  1  6  2  0  0  0  0
  1  2  1  0  0  0  0
  1 21  1  0  0  0  0
  2  3  2  0  0  0  0
  2 22  1  0  0  0  0
  3  4  1  0  0  0  0
  3 11  1  0  0  0  0
  4  5  2  0  0  0  0
  4  8  1  0  0  0  0
  5  6  1  0  0  0  0
  5 23  1  0  0  0  0
  6  7  1  0  0  0  0
  8  9  2  0  0  0  0
  8 10  1  0  0  0  0
 11 12  1  0  0  0  0
 11 24  1  0  0  0  0
 12 13  2  0  0  0  0
 12 14  1  0  0  0  0
 14 20  2  0  0  0  0
 14 15  1  0  0  0  0
 15 16  2  0  0  0  0
 15 25  1  0  0  0  0
 16 17  1  0  0  0  0
 16 26  1  0  0  0  0
 17 18  1  0  0  0  0
 17 19  2  0  0  0  0
 19 20  1  0  0  0  0
M  CHG  1  18  -1
M  END
$$$$
ZINC51395792
 OpenBabel01252620473D

 30 31  0  0  1  0  0  0  0  0999 V2000
   -0.0167    1.3775    0.0096 C   0  0  0  0  0  0  0  0  0  0  0  0
    1.1709    2.0856    0.0021 C   0  0  0  0  0  0  0  0  0  0  0  0
    2.3781    1.4125   -0.0130 C   0  0  0  0  0  0  0  0  0  0  0  0
    2.3993    0.0305   -0.0211 C   0  0  0  0  0  0  0  0  0  0  0  0
    1.2109   -0.6795   -0.0135 C   0  0  0  0  0  0  0  0  0  0  0  0
    0.0021   -0.0041    0.0020 C   0  0  0  0  0  0  0  0  0  0  0  0
    1.2304   -2.0304   -0.0218 F   0  0  0  0  0  0  0  0  0  0  0  0
    3.9383   -0.8272   -0.0415 S   0  0  1  0  0  0  0  0  0  0  0  0
    4.8662    0.1427   -0.5078 O   0  0  0  0  0  0  0  0  0  0  0  0
    4.2646   -1.1848    1.7068 C   0  0  0  0  0  0  0  0  0  0  0  0
    5.5902   -1.9381    1.8344 C   0  0  2  0  0  0  0  0  0  0  0  0
    5.5878   -2.8265    1.2029 H   0  0  0  0  0  0  0  0  0  0  0  0
    5.8610   -2.3196    3.3121 C   0  0  0  0  0  0  0  0  0  0  0  0
    7.4032   -2.4529    3.3352 C   0  0  0  0  0  0  0  0  0  0  0  0
    7.8706   -1.6440    2.1096 C   0  0  1  0  0  0  0  0  0  0  0  0
    8.3746   -2.3019    1.4016 H   0  0  0  0  0  0  0  0  0  0  0  0
    6.6989   -1.0771    1.4966 O   0  0  0  0  0  0  0  0  0  0  0  0
    8.8078   -0.5476    2.5464 C   0  0  0  0  0  0  0  0  0  0  0  0
    9.8868   -0.8285    3.0396 O   0  0  0  0  0  0  0  0  0  0  0  0
    8.4869    0.6203    2.4065 O   0  0  0  0  0  1  0  0  0  0  0  0
   -0.9592    1.9045    0.0259 H   0  0  0  0  0  0  0  0  0  0  0  0
    1.1553    3.1655    0.0076 H   0  0  0  0  0  0  0  0  0  0  0  0
    3.3051    1.9666   -0.0189 H   0  0  0  0  0  0  0  0  0  0  0  0
   -0.9257   -0.5570    0.0082 H   0  0  0  0  0  0  0  0  0  0  0  0
    4.3229   -0.2498    2.2641 H   0  0  0  0  0  0  0  0  0  0  0  0
    3.4581   -1.7978    2.1089 H   0  0  0  0  0  0  0  0  0  0  0  0
    5.5288   -1.5292    3.9851 H   0  0  0  0  0  0  0  0  0  0  0  0
    5.3849   -3.2676    3.5626 H   0  0  0  0  0  0  0  0  0  0  0  0
    7.8094   -2.0255    4.2519 H   0  0  0  0  0  0  0  0  0  0  0  0
    7.6973   -3.4979    3.2373 H   0  0  0  0  0  0  0  0  0  0  0  0
  1  6  2  0  0  0  0
  1  2  1  0  0  0  0
  1 21  1  0  0  0  0
  2  3  2  0  0  0  0
  2 22  1  0  0  0  0
  3  4  1  0  0  0  0
  3 23  1  0  0  0  0
  4  5  2  0  0  0  0
  4  8  1  0  0  0  0
  5  6  1  0  0  0  0
  5  7  1  0  0  0  0
  6 24  1  0  0  0  0
  8  9  2  1  0  0  0
  8 10  1  0  0  0  0
 10 11  1  0  0  0  0
 10 25  1  0  0  0  0
 10 26  1  0  0  0  0
 11 12  1  6  0  0  0
 11 17  1  0  0  0  0
 11 13  1  0  0  0  0
 13 14  1  0  0  0  0
 13 27  1  0  0  0  0
 13 28  1  0  0  0  0
 14 15  1  0  0  0  0
 14 29  1  0  0  0  0
 14 30  1  0  0  0  0
 15 16  1  6  0  0  0
 15 17  1  0  0  0  0
 15 18  1  0  0  0  0
 18 19  2  0  0  0  0
 18 20  1  0  0  0  0
M  END
$$$$
ZINC09019063
 OpenBabel01252620473D

 53 55  0  0  1  0  0  0  0  0999 V2000
   -1.3139    0.7446   -0.7246 C   0  0  0  0  0  0  0  0  0  0  0  0
   -0.3899   -0.3830   -0.3427 C   0  0  0  0  0  0  0  0  0  0  0  0
   -0.5881   -1.0642    0.8366 C   0  0  0  0  0  0  0  0  0  0  0  0
    0.2710   -2.1115    1.1902 C   0  0  0  0  0  0  0  0  0  0  0  0
    1.3284   -2.4605    0.3409 C   0  0  0  0  0  0  0  0  0  0  0  0
    1.5180   -1.7732   -0.8359 C   0  0  0  0  0  0  0  0  0  0  0  0
    0.6581   -0.7371   -1.1853 C   0  0  0  0  0  0  0  0  0  0  0  0
    0.8458   -0.0664   -2.3498 O   0  0  0  0  0  0  0  0  0  0  0  0
    1.9411   -0.4814   -3.1684 C   0  0  0  0  0  0  0  0  0  0  0  0
    0.0634   -2.8432    2.4492 C   0  0  0  0  0  0  0  0  0  0  0  0
   -0.0222   -4.2221    2.4408 C   0  0  0  0  0  0  0  0  0  0  0  0
   -0.1138   -5.1333    3.6429 C   0  0  2  0  0  0  0  0  0  0  0  0
    0.7601   -5.0318    4.3032 H   0  0  0  0  0  0  0  0  0  0  0  0
   -0.1879   -6.5031    3.1264 N   0  0  0  0  0  0  0  0  0  0  0  0
   -0.1394   -6.4668    1.7841 C   0  0  0  0  0  0  0  0  0  0  0  0
   -0.1754   -7.4405    1.0600 O   0  0  0  0  0  0  0  0  0  0  0  0
   -0.0355   -5.0586    1.3149 C   0  0  0  0  0  0  0  0  0  0  0  0
    0.0266   -4.6952    0.1542 O   0  5  0  0  0  0  0  0  0  0  0  0
   -0.2916   -7.7157    3.9418 C   0  0  0  0  0  0  0  0  0  0  0  0
    1.1112   -8.2278    4.2748 C   0  0  0  0  0  0  0  0  0  0  0  0
    1.0030   -9.4943    5.1264 C   0  0  0  0  0  0  0  0  0  0  0  0
    2.3132   -9.9726    5.4374 O   0  0  0  0  0  0  0  0  0  0  0  0
    2.3249  -11.1588    6.2341 C   0  0  0  0  0  0  0  0  0  0  0  0
   -1.3548   -4.8168    4.4370 C   0  0  0  0  0  0  0  0  0  0  0  0
   -2.5862   -5.2743    4.0063 C   0  0  0  0  0  0  0  0  0  0  0  0
   -3.7241   -4.9883    4.7370 C   0  0  0  0  0  0  0  0  0  0  0  0
   -3.6320   -4.2353    5.8936 C   0  0  0  0  0  0  0  0  0  0  0  0
   -2.4003   -3.7732    6.3213 C   0  0  0  0  0  0  0  0  0  0  0  0
   -1.2623   -4.0641    5.5929 C   0  0  0  0  0  0  0  0  0  0  0  0
   -5.1893   -3.8381    6.8901 Br  0  0  0  0  0  0  0  0  0  0  0  0
   -0.0435   -2.1673    3.6131 O   0  0  0  0  0  0  0  0  0  0  0  0
   -2.0745    0.8768    0.0590 H   0  0  0  0  0  0  0  0  0  0  0  0
   -1.8076    0.5070   -1.6784 H   0  0  0  0  0  0  0  0  0  0  0  0
   -0.7340    1.6730   -0.8331 H   0  0  0  0  0  0  0  0  0  0  0  0
   -1.4048   -0.7910    1.4884 H   0  0  0  0  0  0  0  0  0  0  0  0
    1.9937   -3.2679    0.6090 H   0  0  0  0  0  0  0  0  0  0  0  0
    2.3332   -2.0416   -1.4916 H   0  0  0  0  0  0  0  0  0  0  0  0
    1.9780    0.1410   -4.0746 H   0  0  0  0  0  0  0  0  0  0  0  0
    1.8075   -1.5356   -3.4528 H   0  0  0  0  0  0  0  0  0  0  0  0
    2.8809   -0.3691   -2.6079 H   0  0  0  0  0  0  0  0  0  0  0  0
   -0.8289   -7.4860    4.8737 H   0  0  0  0  0  0  0  0  0  0  0  0
   -0.8407   -8.4877    3.3827 H   0  0  0  0  0  0  0  0  0  0  0  0
    1.6485   -8.4574    3.3428 H   0  0  0  0  0  0  0  0  0  0  0  0
    1.6602   -7.4558    4.8339 H   0  0  0  0  0  0  0  0  0  0  0  0
    0.4657   -9.2647    6.0584 H   0  0  0  0  0  0  0  0  0  0  0  0
    0.4540  -10.2663    4.5673 H   0  0  0  0  0  0  0  0  0  0  0  0
    3.3649  -11.4599    6.4282 H   0  0  0  0  0  0  0  0  0  0  0  0
    1.8035  -11.9656    5.6981 H   0  0  0  0  0  0  0  0  0  0  0  0
    1.8152  -10.9640    7.1892 H   0  0  0  0  0  0  0  0  0  0  0  0
   -2.6585   -5.8588    3.1011 H   0  0  0  0  0  0  0  0  0  0  0  0
   -4.6854   -5.3496    4.4028 H   0  0  0  0  0  0  0  0  0  0  0  0
   -2.3280   -3.1849    7.2241 H   0  0  0  0  0  0  0  0  0  0  0  0
   -0.3006   -3.7037    5.9269 H   0  0  0  0  0  0  0  0  0  0  0  0
  1  2  1  0  0  0  0
  1 32  1  0  0  0  0
  1 33  1  0  0  0  0
  1 34  1  0  0  0  0
  2  7  2  0  0  0  0
  2  3  1  0  0  0  0
  3  4  2  0  0  0  0
  3 35  1  0  0  0  0
  4  5  1  0  0  0  0
  4 10  1  0  0  0  0
  5  6  2  0  0  0  0
  5 36  1  0  0  0  0
  6  7  1  0  0  0  0
  6 37  1  0  0  0  0
  7  8  1  0  0  0  0
  8  9  1  0  0  0  0
  9 38  1  0  0  0  0
  9 39  1  0  0  0  0
  9 40  1  0  0  0  0
 10 11  1  0  0  0  0
 10 31  2  0  0  0  0
 11 17  2  0  0  0  0
 11 12  1  0  0  0  0
 12 13  1  1  0  0  0
 12 14  1  0  0  0  0
 12 24  1  0  0  0  0
 14 15  1  0  0  0  0
 14 19  1  0  0  0  0
 15 16  2  0  0  0  0
 15 17  1  0  0  0  0
 17 18  1  0  0  0  0
 19 20  1  0  0  0  0
 19 41  1  0  0  0  0
 19 42  1  0  0  0  0
 20 21  1  0  0  0  0
 20 43  1  0  0  0  0
 20 44  1  0  0  0  0
 21 22  1  0  0  0  0
 21 45  1  0  0  0  0
 21 46  1  0  0  0  0
 22 23  1  0  0  0  0
 23 47  1  0  0  0  0
 23 48  1  0  0  0  0
 23 49  1  0  0  0  0
 24 29  2  0  0  0  0
 24 25  1  0  0  0  0
 25 26  2  0  0  0  0
 25 50  1  0  0  0  0
 26 27  1  0  0  0  0
 26 51  1  0  0  0  0
 27 28  2  0  0  0  0
 27 30  1  0  0  0  0
 28 29  1  0  0  0  0
 28 52  1  0  0  0  0
 29 53  1  0  0  0  0
M  CHG  1  18  -1
M  END
$$$$
ZINC35420226
 OpenBabel01252620473D

 57 61  0  0  1  0  0  0  0  0999 V2000
   -2.6890    0.8070   -2.4880 C   0  0  0  0  0  0  0  0  0  0  0  0
   -2.2574   -0.6369   -2.4901 C   0  0  0  0  0  0  0  0  0  0  0  0
   -0.9691   -1.1017   -2.7219 C   0  0  0  0  0  0  0  0  0  0  0  0
   -1.0292   -2.4804   -2.6290 N   0  0  0  0  0  0  0  0  0  0  0  0
   -0.0855   -3.4499   -2.7614 C   0  0  0  0  0  0  0  0  0  0  0  0
   -0.4132   -4.7552   -2.6191 C   0  0  0  0  0  0  0  0  0  0  0  0
   -1.7348   -5.1208   -2.3320 C   0  0  0  0  0  0  0  0  0  0  0  0
   -2.6874   -4.1538   -2.1971 C   0  0  0  0  0  0  0  0  0  0  0  0
   -2.3265   -2.8041   -2.3492 C   0  0  0  0  0  0  0  0  0  0  0  0
   -3.0381   -1.6795   -2.2662 N   0  0  0  0  0  0  0  0  0  0  0  0
    0.1788   -0.3188   -2.9993 C   0  0  0  0  0  0  0  0  0  0  0  0
    0.0744    1.1449   -3.0503 C   0  0  0  0  0  0  0  0  0  0  0  0
    0.2597    2.1024   -1.8963 C   0  0  2  0  0  0  0  0  0  0  0  0
   -0.4770    1.8996   -1.1189 H   0  0  0  0  0  0  0  0  0  0  0  0
    0.0563    3.4480   -2.4460 N   0  0  0  0  0  0  0  0  0  0  0  0
   -0.2158    3.3211   -3.7576 C   0  0  0  0  0  0  0  0  0  0  0  0
   -0.4368    4.2444   -4.5162 O   0  0  0  0  0  0  0  0  0  0  0  0
   -0.2004    1.8963   -4.1404 C   0  0  0  0  0  0  0  0  0  0  0  0
   -0.4283    1.4166   -5.3865 O   0  5  0  0  0  0  0  0  0  0  0  0
    0.1346    4.7058   -1.6991 C   0  0  0  0  0  0  0  0  0  0  0  0
    1.5484    5.2261   -1.7384 C   0  0  0  0  0  0  0  0  0  0  0  0
    2.0553    6.0571   -2.6668 C   0  0  0  0  0  0  0  0  0  0  0  0
    3.4071    6.2834   -2.3197 C   0  0  0  0  0  0  0  0  0  0  0  0
    3.6453    5.5772   -1.2000 C   0  0  0  0  0  0  0  0  0  0  0  0
    2.5144    4.9434   -0.8492 O   0  0  0  0  0  0  0  0  0  0  0  0
    1.6532    1.9762   -1.3366 C   0  0  0  0  0  0  0  0  0  0  0  0
    2.7423    2.3445   -2.1052 C   0  0  0  0  0  0  0  0  0  0  0  0
    4.0219    2.2300   -1.5947 C   0  0  0  0  0  0  0  0  0  0  0  0
    4.2157    1.7466   -0.3149 C   0  0  0  0  0  0  0  0  0  0  0  0
    3.1250    1.3765    0.4580 C   0  0  0  0  0  0  0  0  0  0  0  0
    1.8413    1.4982   -0.0545 C   0  0  0  0  0  0  0  0  0  0  0  0
    3.3130    0.9009    1.7171 O   0  0  0  0  0  0  0  0  0  0  0  0
    4.6614    0.8084    2.1810 C   0  0  0  0  0  0  0  0  0  0  0  0
    4.6729    0.2646    3.5865 C   0  0  0  0  0  0  0  0  0  0  0  0
    5.5269   -0.6711    3.9198 C   0  0  0  0  0  0  0  0  0  0  0  0
    1.2536   -0.8606   -3.1958 O   0  0  0  0  0  0  0  0  0  0  0  0
   -2.4786    1.2477   -1.5136 H   0  0  0  0  0  0  0  0  0  0  0  0
   -2.1423    1.3507   -3.2584 H   0  0  0  0  0  0  0  0  0  0  0  0
   -3.7584    0.8668   -2.6906 H   0  0  0  0  0  0  0  0  0  0  0  0
    0.9354   -3.1757   -2.9827 H   0  0  0  0  0  0  0  0  0  0  0  0
    0.3454   -5.5164   -2.7273 H   0  0  0  0  0  0  0  0  0  0  0  0
   -1.9980   -6.1621   -2.2184 H   0  0  0  0  0  0  0  0  0  0  0  0
   -3.7097   -4.4230   -1.9762 H   0  0  0  0  0  0  0  0  0  0  0  0
   -0.5348    5.4384   -2.1500 H   0  0  0  0  0  0  0  0  0  0  0  0
   -0.1602    4.5328   -0.6641 H   0  0  0  0  0  0  0  0  0  0  0  0
    1.5306    6.4714   -3.5150 H   0  0  0  0  0  0  0  0  0  0  0  0
    4.1130    6.9039   -2.8517 H   0  0  0  0  0  0  0  0  0  0  0  0
    4.5855    5.5309   -0.6705 H   0  0  0  0  0  0  0  0  0  0  0  0
    2.5929    2.7219   -3.1060 H   0  0  0  0  0  0  0  0  0  0  0  0
    4.8708    2.5182   -2.1969 H   0  0  0  0  0  0  0  0  0  0  0  0
    5.2156    1.6567    0.0832 H   0  0  0  0  0  0  0  0  0  0  0  0
    0.9901    1.2152    0.5471 H   0  0  0  0  0  0  0  0  0  0  0  0
    5.2251    0.1414    1.5288 H   0  0  0  0  0  0  0  0  0  0  0  0
    5.1179    1.7982    2.1707 H   0  0  0  0  0  0  0  0  0  0  0  0
    3.9770    0.6463    4.3189 H   0  0  0  0  0  0  0  0  0  0  0  0
    6.2228   -1.0529    3.1874 H   0  0  0  0  0  0  0  0  0  0  0  0
    5.5351   -1.0608    4.9270 H   0  0  0  0  0  0  0  0  0  0  0  0
  1  2  1  0  0  0  0
  1 37  1  0  0  0  0
  1 38  1  0  0  0  0
  1 39  1  0  0  0  0
  2 10  1  0  0  0  0
  2  3  2  0  0  0  0
  3  4  1  0  0  0  0
  3 11  1  0  0  0  0
  4  9  1  0  0  0  0
  4  5  1  0  0  0  0
  5  6  2  0  0  0  0
  5 40  1  0  0  0  0
  6  7  1  0  0  0  0
  6 41  1  0  0  0  0
  7  8  2  0  0  0  0
  7 42  1  0  0  0  0
  8  9  1  0  0  0  0
  8 43  1  0  0  0  0
  9 10  2  0  0  0  0
 11 12  1  0  0  0  0
 11 36  2  0  0  0  0
 12 18  2  0  0  0  0
 12 13  1  0  0  0  0
 13 15  1  0  0  0  0
 13 26  1  0  0  0  0
 13 14  1  1  0  0  0
 15 20  1  0  0  0  0
 15 16  1  0  0  0  0
 16 17  2  0  0  0  0
 16 18  1  0  0  0  0
 18 19  1  0  0  0  0
 20 21  1  0  0  0  0
 20 44  1  0  0  0  0
 20 45  1  0  0  0  0
 21 25  1  0  0  0  0
 21 22  2  0  0  0  0
 22 23  1  0  0  0  0
 22 46  1  0  0  0  0
 23 24  2  0  0  0  0
 23 47  1  0  0  0  0
 24 25  1  0  0  0  0
 24 48  1  0  0  0  0
 26 31  2  0  0  0  0
 26 27  1  0  0  0  0
 27 28  2  0  0  0  0
 27 49  1  0  0  0  0
 28 29  1  0  0  0  0
 28 50  1  0  0  0  0
 29 30  2  0  0  0  0
 29 51  1  0  0  0  0
 30 31  1  0  0  0  0
 30 32  1  0  0  0  0
 31 52  1  0  0  0  0
 32 33  1  0  0  0  0
 33 34  1  0  0  0  0
 33 53  1  0  0  0  0
 33 54  1  0  0  0  0
 34 35  2  0  0  0  0
 34 55  1  0  0  0  0
 35 56  1  0  0  0  0
 35 57  1  0  0  0  0
M  CHG  1  19  -1
M  END
$$$$
ZINC61798051
 OpenBabel01252620473D

 33 34  0  0  0  0  0  0  0  0999 V2000
   -0.0178    1.4608    0.0101 C   0  0  0  0  0  0  0  0  0  0  0  0
    0.0021   -0.0041    0.0020 N   0  0  0  0  0  0  0  0  0  0  0  0
   -1.2561   -0.7510    0.0040 C   0  0  0  0  0  0  0  0  0  0  0  0
   -1.1422   -1.9942   -0.8737 C   0  0  0  0  0  0  0  0  0  0  0  0
    0.0399   -2.7748   -0.5073 N   0  0  0  0  0  0  0  0  0  0  0  0
    1.1804   -2.1503   -0.1516 C   0  0  0  0  0  0  0  0  0  0  0  0
    2.1939   -2.7871    0.0481 O   0  0  0  0  0  0  0  0  0  0  0  0
    1.1795   -0.6604   -0.0127 C   0  0  0  0  0  0  0  0  0  0  0  0
    2.2244   -0.0520    0.0895 O   0  0  0  0  0  0  0  0  0  0  0  0
   -0.0163   -4.2385   -0.5268 C   0  0  0  0  0  0  0  0  0  0  0  0
    0.3861   -4.7387   -1.8902 C   0  0  0  0  0  0  0  0  0  0  0  0
    1.6518   -5.0698   -2.3332 C   0  0  0  0  0  0  0  0  0  0  0  0
    1.7630   -5.5281   -3.6986 C   0  0  0  0  0  0  0  0  0  0  0  0
    0.6104   -5.5821   -4.3940 C   0  0  0  0  0  0  0  0  0  0  0  0
   -0.6018   -5.0276   -3.2152 S   0  0  0  0  0  0  0  0  0  0  0  0
    2.8239   -4.9610   -1.4614 C   0  0  0  0  0  0  0  0  0  0  0  0
    4.0518   -5.2952   -1.9309 C   0  0  0  0  0  0  0  0  0  0  0  0
    5.1795   -5.1906   -1.0921 C   0  0  0  0  0  0  0  0  0  0  0  0
    5.0507   -4.7976    0.0619 O   0  0  0  0  0  0  0  0  0  0  0  0
    6.2892   -5.4925   -1.5164 O   0  0  0  0  0  1  0  0  0  0  0  0
    1.0048    1.8381    0.0023 H   0  0  0  0  0  0  0  0  0  0  0  0
   -0.5450    1.8219   -0.8730 H   0  0  0  0  0  0  0  0  0  0  0  0
   -0.5280    1.8123    0.9069 H   0  0  0  0  0  0  0  0  0  0  0  0
   -1.4942   -1.0517    1.0243 H   0  0  0  0  0  0  0  0  0  0  0  0
   -2.0535   -0.1132   -0.3776 H   0  0  0  0  0  0  0  0  0  0  0  0
   -2.0332   -2.6086   -0.7442 H   0  0  0  0  0  0  0  0  0  0  0  0
   -1.0637   -1.6912   -1.9178 H   0  0  0  0  0  0  0  0  0  0  0  0
    0.6665   -4.6383    0.2230 H   0  0  0  0  0  0  0  0  0  0  0  0
   -1.0319   -4.5662   -0.3048 H   0  0  0  0  0  0  0  0  0  0  0  0
    2.7103   -5.8093   -4.1345 H   0  0  0  0  0  0  0  0  0  0  0  0
    0.4585   -5.8908   -5.4177 H   0  0  0  0  0  0  0  0  0  0  0  0
    2.7104   -4.6148   -0.4447 H   0  0  0  0  0  0  0  0  0  0  0  0
    4.1653   -5.6414   -2.9476 H   0  0  0  0  0  0  0  0  0  0  0  0
  1  2  1  0  0  0  0
  1 21  1  0  0  0  0
  1 22  1  0  0  0  0
  1 23  1  0  0  0  0
  2  8  1  0  0  0  0
  2  3  1  0  0  0  0
  3  4  1  0  0  0  0
  3 24  1  0  0  0  0
  3 25  1  0  0  0  0
  4  5  1  0  0  0  0
  4 26  1  0  0  0  0
  4 27  1  0  0  0  0
  5  6  1  0  0  0  0
  5 10  1  0  0  0  0
  6  7  2  0  0  0  0
  6  8  1  0  0  0  0
  8  9  2  0  0  0  0
 10 11  1  0  0  0  0
 10 28  1  0  0  0  0
 10 29  1  0  0  0  0
 11 15  1  0  0  0  0
 11 12  2  0  0  0  0
 12 13  1  0  0  0  0
 12 16  1  0  0  0  0
 13 14  2  0  0  0  0
 13 30  1  0  0  0  0
 14 15  1  0  0  0  0
 14 31  1  0  0  0  0
 16 17  2  0  0  0  0
 16 32  1  0  0  0  0
 17 18  1  0  0  0  0
 17 33  1  0  0  0  0
 18 19  2  0  0  0  0
 18 20  1  0  0  0  0
M  END
$$$$
ZINC40384413
 OpenBabel01252620473D

 32 33  0  0  0  0  0  0  0  0999 V2000
   -0.0173    1.4248    0.0099 C   0  0  0  0  0  0  0  0  0  0  0  0
    0.0021   -0.0041    0.0020 O   0  0  0  0  0  0  0  0  0  0  0  0
    0.6063   -0.6076   -1.0566 C   0  0  0  0  0  0  0  0  0  0  0  0
    1.1727    0.1584   -2.0619 C   0  0  0  0  0  0  0  0  0  0  0  0
    1.7862   -0.4565   -3.1379 C   0  0  0  0  0  0  0  0  0  0  0  0
    1.8369   -1.8361   -3.2138 C   0  0  0  0  0  0  0  0  0  0  0  0
    1.2745   -2.6077   -2.2144 C   0  0  0  0  0  0  0  0  0  0  0  0
    0.6620   -1.9977   -1.1294 C   0  0  0  0  0  0  0  0  0  0  0  0
    0.0968   -2.7768   -0.1132 N   0  0  0  0  0  2  0  0  0  0  0  0
    0.1642   -4.4291   -0.2021 S   0  0  0  0  0  0  0  0  0  0  0  0
   -0.6340   -4.8089   -1.3146 O   0  0  0  0  0  0  0  0  0  0  0  0
    1.5351   -4.7862   -0.0907 O   0  0  0  0  0  0  0  0  0  0  0  0
   -0.6390   -5.0612    1.2332 C   0  0  0  0  0  0  0  0  0  0  0  0
   -0.0500   -5.3317    2.4210 C   0  0  0  0  0  0  0  0  0  0  0  0
   -1.0026   -5.7972    3.2559 N   0  0  0  0  0  0  0  0  0  0  0  0
   -0.8698   -6.0718    4.1767 H   0  0  0  0  0  0  0  0  0  0  0  0
   -2.2171   -5.8132    2.5581 N   0  0  0  0  0  0  0  0  0  0  0  0
   -1.9992   -5.3663    1.3479 C   0  0  0  0  0  0  0  0  0  0  0  0
    2.6199   -2.6124   -4.5881 S   0  0  0  0  0  0  0  0  0  0  0  0
    2.0553   -3.9120   -4.6964 O   0  0  0  0  0  0  0  0  0  0  0  0
    2.5869   -1.6761   -5.6565 O   0  0  0  0  0  0  0  0  0  0  0  0
    4.2139   -2.8205   -4.1902 N   0  0  0  0  0  0  0  0  0  0  0  0
    1.0053    1.8021    0.0021 H   0  0  0  0  0  0  0  0  0  0  0  0
   -0.5445    1.7859   -0.8732 H   0  0  0  0  0  0  0  0  0  0  0  0
   -0.5275    1.7763    0.9067 H   0  0  0  0  0  0  0  0  0  0  0  0
    1.1348    1.2363   -2.0057 H   0  0  0  0  0  0  0  0  0  0  0  0
    2.2267    0.1425   -3.9212 H   0  0  0  0  0  0  0  0  0  0  0  0
    1.3151   -3.6852   -2.2764 H   0  0  0  0  0  0  0  0  0  0  0  0
    0.9952   -5.1989    2.6584 H   0  0  0  0  0  0  0  0  0  0  0  0
   -2.7408   -5.2551    0.5708 H   0  0  0  0  0  0  0  0  0  0  0  0
    4.5402   -2.5267   -3.3253 H   0  0  0  0  0  0  0  0  0  0  0  0
    4.8212   -3.2363   -4.8221 H   0  0  0  0  0  0  0  0  0  0  0  0
  1  2  1  0  0  0  0
  1 23  1  0  0  0  0
  1 24  1  0  0  0  0
  1 25  1  0  0  0  0
  2  3  1  0  0  0  0
  3  8  2  0  0  0  0
  3  4  1  0  0  0  0
  4  5  2  0  0  0  0
  4 26  1  0  0  0  0
  5  6  1  0  0  0  0
  5 27  1  0  0  0  0
  6  7  2  0  0  0  0
  6 19  1  0  0  0  0
  7  8  1  0  0  0  0
  7 28  1  0  0  0  0
  8  9  1  0  0  0  0
  9 10  1  0  0  0  0
 10 11  2  0  0  0  0
 10 12  2  0  0  0  0
 10 13  1  0  0  0  0
 13 18  1  0  0  0  0
 13 14  2  0  0  0  0
 14 15  1  0  0  0  0
 14 29  1  0  0  0  0
 15 16  1  0  0  0  0
 15 17  1  0  0  0  0
 17 18  2  0  0  0  0
 18 30  1  0  0  0  0
 19 20  2  0  0  0  0
 19 21  2  0  0  0  0
 19 22  1  0  0  0  0
 22 31  1  0  0  0  0
 22 32  1  0  0  0  0
M  END
$$$$
ZINC02872669
 OpenBabel01252620473D

 24 25  0  0  1  0  0  0  0  0999 V2000
   -6.0522    1.4986    4.4147 C   0  0  0  0  0  0  0  0  0  0  0  0
   -4.8968    1.7588    3.4828 C   0  0  0  0  0  0  0  0  0  0  0  0
   -4.5464    2.9992    2.9304 C   0  0  0  0  0  0  0  0  0  0  0  0
   -3.4936    2.8324    2.1750 N   0  0  0  0  0  0  0  0  0  0  0  0
   -3.1326    1.4794    2.2169 N   0  0  0  0  0  0  0  0  0  0  0  0
   -4.0204    0.8374    3.0281 C   0  0  0  0  0  0  0  0  0  0  0  0
   -2.0966    0.9129    1.5670 C   0  0  0  0  0  0  0  0  0  0  0  0
   -1.9390   -0.2843    1.6089 O   0  0  0  0  0  0  0  0  0  0  0  0
   -1.1348    1.7727    0.7881 C   0  0  1  0  0  0  0  0  0  0  0  0
   -0.4573    2.9260    1.5309 C   0  0  0  0  0  0  0  0  0  0  0  0
    0.3492    1.6821    1.1524 C   0  0  0  0  0  0  0  0  0  0  0  0
    1.5462    1.8416   -0.1864 Cl  0  0  0  0  0  0  0  0  0  0  0  0
    0.8139    0.5552    2.4809 Cl  0  0  0  0  0  0  0  0  0  0  0  0
   -1.4886    1.9916   -0.6843 C   0  0  0  0  0  0  0  0  0  0  0  0
   -6.9393    1.2489    3.8327 H   0  0  0  0  0  0  0  0  0  0  0  0
   -5.8057    0.6677    5.0758 H   0  0  0  0  0  0  0  0  0  0  0  0
   -6.2472    2.3908    5.0096 H   0  0  0  0  0  0  0  0  0  0  0  0
   -5.0602    3.9339    3.1001 H   0  0  0  0  0  0  0  0  0  0  0  0
   -4.0213   -0.2161    3.2659 H   0  0  0  0  0  0  0  0  0  0  0  0
   -0.7072    3.0628    2.5830 H   0  0  0  0  0  0  0  0  0  0  0  0
   -0.2639    3.8408    0.9708 H   0  0  0  0  0  0  0  0  0  0  0  0
   -0.6004    2.3151   -1.2271 H   0  0  0  0  0  0  0  0  0  0  0  0
   -1.8563    1.0590   -1.1122 H   0  0  0  0  0  0  0  0  0  0  0  0
   -2.2610    2.7567   -0.7625 H   0  0  0  0  0  0  0  0  0  0  0  0
  1  2  1  0  0  0  0
  1 15  1  0  0  0  0
  1 16  1  0  0  0  0
  1 17  1  0  0  0  0
  2  6  2  0  0  0  0
  2  3  1  0  0  0  0
  3  4  2  0  0  0  0
  3 18  1  0  0  0  0
  4  5  1  0  0  0  0
  5  6  1  0  0  0  0
  5  7  1  0  0  0  0
  6 19  1  0  0  0  0
  7  8  2  0  0  0  0
  9  7  1  1  0  0  0
  9 11  1  0  0  0  0
  9 10  1  0  0  0  0
  9 14  1  0  0  0  0
 10 11  1  0  0  0  0
 10 20  1  0  0  0  0
 10 21  1  0  0  0  0
 11 12  1  0  0  0  0
 11 13  1  0  0  0  0
 14 22  1  0  0  0  0
 14 23  1  0  0  0  0
 14 24  1  0  0  0  0
M  END
$$$$
ZINC13865273
 OpenBabel01252620473D

 44 45  0  0  0  0  0  0  0  0999 V2000
   -0.4291   -0.3175    0.8570 C   0  0  0  0  0  0  0  0  0  0  0  0
    0.3184    0.4314   -0.2481 C   0  0  0  0  0  0  0  0  0  0  0  0
    0.8412   -0.5563   -1.2592 C   0  0  0  0  0  0  0  0  0  0  0  0
    2.0771   -1.1483   -1.0726 C   0  0  0  0  0  0  0  0  0  0  0  0
    2.7170   -1.9517   -2.1340 C   0  0  0  0  0  0  0  0  0  0  0  0
    3.9187   -2.4974   -1.8840 N   0  0  0  0  0  0  0  0  0  0  0  0
    4.5286   -2.3363   -0.7366 C   0  0  0  0  0  0  0  0  0  0  0  0
    5.7321   -2.9179   -0.5692 O   0  5  0  0  0  0  0  0  0  0  0  0
    4.0163   -1.6154    0.2942 N   0  0  0  0  0  0  0  0  0  0  0  0
    2.8182   -1.0016    0.1911 C   0  0  0  0  0  0  0  0  0  0  0  0
    2.3634   -0.3520    1.1146 O   0  0  0  0  0  0  0  0  0  0  0  0
    4.7805   -1.4965    1.5384 C   0  0  0  0  0  0  0  0  0  0  0  0
    5.6773   -0.2877    1.4636 C   0  0  0  0  0  0  0  0  0  0  0  0
    5.6148    0.6328    2.3935 C   0  0  0  0  0  0  0  0  0  0  0  0
    2.1678   -2.1158   -3.2104 O   0  0  0  0  0  0  0  0  0  0  0  0
    0.1043   -0.8626   -2.3454 N   0  0  0  0  0  0  0  0  0  0  0  0
   -1.0886   -0.1734   -2.5998 N   0  0  0  0  0  0  0  0  0  0  0  0
   -1.7693   -0.4026   -3.7402 C   0  0  0  0  0  0  0  0  0  0  0  0
   -3.2271    0.4396   -4.0509 S   0  0  0  0  0  0  0  0  0  0  0  0
   -1.3025   -1.2949   -4.6359 N   0  0  0  0  0  0  0  0  0  0  0  0
   -1.9442   -1.4490   -5.8693 C   0  0  0  0  0  0  0  0  0  0  0  0
   -2.3646   -0.3319   -6.5794 C   0  0  0  0  0  0  0  0  0  0  0  0
   -2.9975   -0.4874   -7.7971 C   0  0  0  0  0  0  0  0  0  0  0  0
   -3.2127   -1.7537   -8.3094 C   0  0  0  0  0  0  0  0  0  0  0  0
   -2.7953   -2.8680   -7.6049 C   0  0  0  0  0  0  0  0  0  0  0  0
   -2.1572   -2.7191   -6.3891 C   0  0  0  0  0  0  0  0  0  0  0  0
   -1.2632   -0.8686    0.4225 H   0  0  0  0  0  0  0  0  0  0  0  0
    0.2505   -1.0144    1.3475 H   0  0  0  0  0  0  0  0  0  0  0  0
   -0.8073    0.3968    1.5883 H   0  0  0  0  0  0  0  0  0  0  0  0
   -0.3612    1.1282   -0.7386 H   0  0  0  0  0  0  0  0  0  0  0  0
    1.1524    0.9824    0.1865 H   0  0  0  0  0  0  0  0  0  0  0  0
    4.0936   -1.3880    2.3777 H   0  0  0  0  0  0  0  0  0  0  0  0
    5.3874   -2.3910    1.6789 H   0  0  0  0  0  0  0  0  0  0  0  0
    6.3716   -0.1804    0.6433 H   0  0  0  0  0  0  0  0  0  0  0  0
    4.9205    0.5254    3.2138 H   0  0  0  0  0  0  0  0  0  0  0  0
    6.2575    1.4991    2.3399 H   0  0  0  0  0  0  0  0  0  0  0  0
    0.4000   -1.5602   -2.9511 H   0  0  0  0  0  0  0  0  0  0  0  0
   -1.4246    0.4688   -1.9551 H   0  0  0  0  0  0  0  0  0  0  0  0
   -0.5215   -1.8303   -4.4253 H   0  0  0  0  0  0  0  0  0  0  0  0
   -2.1971    0.6573   -6.1796 H   0  0  0  0  0  0  0  0  0  0  0  0
   -3.3249    0.3809   -8.3496 H   0  0  0  0  0  0  0  0  0  0  0  0
   -3.7081   -1.8726   -9.2617 H   0  0  0  0  0  0  0  0  0  0  0  0
   -2.9649   -3.8556   -8.0077 H   0  0  0  0  0  0  0  0  0  0  0  0
   -1.8275   -3.5896   -5.8415 H   0  0  0  0  0  0  0  0  0  0  0  0
  1  2  1  0  0  0  0
  1 27  1  0  0  0  0
  1 28  1  0  0  0  0
  1 29  1  0  0  0  0
  2  3  1  0  0  0  0
  2 30  1  0  0  0  0
  2 31  1  0  0  0  0
  3  4  2  0  0  0  0
  3 16  1  0  0  0  0
  4 10  1  0  0  0  0
  4  5  1  0  0  0  0
  5  6  1  0  0  0  0
  5 15  2  0  0  0  0
  6  7  2  0  0  0  0
  7  8  1  0  0  0  0
  7  9  1  0  0  0  0
  9 10  1  0  0  0  0
  9 12  1  0  0  0  0
 10 11  2  0  0  0  0
 12 13  1  0  0  0  0
 12 32  1  0  0  0  0
 12 33  1  0  0  0  0
 13 14  2  0  0  0  0
 13 34  1  0  0  0  0
 14 35  1  0  0  0  0
 14 36  1  0  0  0  0
 16 17  1  0  0  0  0
 16 37  1  0  0  0  0
 17 18  1  0  0  0  0
 17 38  1  0  0  0  0
 18 19  2  0  0  0  0
 18 20  1  0  0  0  0
 20 21  1  0  0  0  0
 20 39  1  0  0  0  0
 21 26  2  0  0  0  0
 21 22  1  0  0  0  0
 22 23  2  0  0  0  0
 22 40  1  0  0  0  0
 23 24  1  0  0  0  0
 23 41  1  0  0  0  0
 24 25  2  0  0  0  0
 24 42  1  0  0  0  0
 25 26  1  0  0  0  0
 25 43  1  0  0  0  0
 26 44  1  0  0  0  0
M  CHG  1   8  -1
M  END
$$$$
ZINC58014645
 OpenBabel01252620473D

 46 49  0  0  0  0  0  0  0  0999 V2000
   -0.0167    1.3786    0.0096 C   0  0  0  0  0  0  0  0  0  0  0  0
    1.1697    2.0890    0.0021 C   0  0  0  0  0  0  0  0  0  0  0  0
    2.3773    1.4190   -0.0134 C   0  0  0  0  0  0  0  0  0  0  0  0
    2.3994    0.0308   -0.0211 C   0  0  0  0  0  0  0  0  0  0  0  0
    1.2066   -0.6797   -0.0130 C   0  0  0  0  0  0  0  0  0  0  0  0
    0.0021   -0.0041    0.0020 C   0  0  0  0  0  0  0  0  0  0  0  0
    3.6236   -0.6521   -0.0373 N   0  0  0  0  0  0  0  0  0  0  0  0
    3.7859   -1.9945   -0.0516 C   0  0  0  0  0  0  0  0  0  0  0  0
    5.1150   -2.2483   -0.0650 C   0  0  0  0  0  0  0  0  0  0  0  0
    5.7880   -1.0216   -0.0587 C   0  0  0  0  0  0  0  0  0  0  0  0
    4.8953   -0.0646   -0.0477 N   0  0  0  0  0  0  0  0  0  0  0  0
    5.8657   -3.8423   -0.0860 S   0  0  0  0  0  0  0  0  0  0  0  0
    7.1699   -3.6842    0.4555 O   0  0  0  0  0  0  0  0  0  0  0  0
    4.9166   -4.7454    0.4644 O   0  0  0  0  0  0  0  0  0  0  0  0
    6.0611   -4.2706   -1.6737 N   0  0  0  0  0  2  0  0  0  0  0  0
    6.6388   -5.4998   -1.9994 C   0  0  0  0  0  0  0  0  0  0  0  0
    7.0447   -6.3668   -0.9928 C   0  0  0  0  0  0  0  0  0  0  0  0
    7.6151   -7.5817   -1.3184 C   0  0  0  0  0  0  0  0  0  0  0  0
    7.7827   -7.9353   -2.6447 C   0  0  0  0  0  0  0  0  0  0  0  0
    7.3798   -7.0746   -3.6492 C   0  0  0  0  0  0  0  0  0  0  0  0
    6.8035   -5.8606   -3.3307 C   0  0  0  0  0  0  0  0  0  0  0  0
    8.4065   -9.2613   -2.9961 C   0  0  0  0  0  0  0  0  0  0  0  0
    7.3586  -10.2786   -3.1114 N   0  0  0  0  0  0  0  0  0  0  0  0
    6.9471  -11.0158   -2.0724 C   0  0  0  0  0  0  0  0  0  0  0  0
    7.3761  -10.9364   -0.9414 O   0  0  0  0  0  0  0  0  0  0  0  0
    5.8613  -11.9635   -2.5334 C   0  0  0  0  0  0  0  0  0  0  0  0
    5.7151  -11.6428   -4.0349 C   0  0  0  0  0  0  0  0  0  0  0  0
    6.7297  -10.5436   -4.2632 C   0  0  0  0  0  0  0  0  0  0  0  0
    6.9414   -9.9923   -5.3218 O   0  0  0  0  0  0  0  0  0  0  0  0
   -0.9597    1.9047    0.0260 H   0  0  0  0  0  0  0  0  0  0  0  0
    1.1519    3.1688    0.0080 H   0  0  0  0  0  0  0  0  0  0  0  0
    3.3036    1.9744   -0.0200 H   0  0  0  0  0  0  0  0  0  0  0  0
    1.2207   -1.7596   -0.0193 H   0  0  0  0  0  0  0  0  0  0  0  0
   -0.9261   -0.5562    0.0082 H   0  0  0  0  0  0  0  0  0  0  0  0
    2.9966   -2.7316   -0.0518 H   0  0  0  0  0  0  0  0  0  0  0  0
    6.8596   -0.8875   -0.0659 H   0  0  0  0  0  0  0  0  0  0  0  0
    6.9146   -6.0909    0.0433 H   0  0  0  0  0  0  0  0  0  0  0  0
    7.9308   -8.2562   -0.5362 H   0  0  0  0  0  0  0  0  0  0  0  0
    7.5122   -7.3538   -4.6841 H   0  0  0  0  0  0  0  0  0  0  0  0
    6.4849   -5.1908   -4.1157 H   0  0  0  0  0  0  0  0  0  0  0  0
    8.9344   -9.1743   -3.9458 H   0  0  0  0  0  0  0  0  0  0  0  0
    9.1094   -9.5507   -2.2149 H   0  0  0  0  0  0  0  0  0  0  0  0
    6.1700  -12.9991   -2.3906 H   0  0  0  0  0  0  0  0  0  0  0  0
    4.9286  -11.7640   -2.0059 H   0  0  0  0  0  0  0  0  0  0  0  0
    5.9510  -12.5188   -4.6390 H   0  0  0  0  0  0  0  0  0  0  0  0
    4.7096  -11.2836   -4.2543 H   0  0  0  0  0  0  0  0  0  0  0  0
  1  6  2  0  0  0  0
  1  2  1  0  0  0  0
  1 30  1  0  0  0  0
  2  3  2  0  0  0  0
  2 31  1  0  0  0  0
  3  4  1  0  0  0  0
  3 32  1  0  0  0  0
  4  5  2  0  0  0  0
  4  7  1  0  0  0  0
  5  6  1  0  0  0  0
  5 33  1  0  0  0  0
  6 34  1  0  0  0  0
  7 11  1  0  0  0  0
  7  8  1  0  0  0  0
  8  9  2  0  0  0  0
  8 35  1  0  0  0  0
  9 10  1  0  0  0  0
  9 12  1  0  0  0  0
 10 11  2  0  0  0  0
 10 36  1  0  0  0  0
 12 13  2  0  0  0  0
 12 14  2  0  0  0  0
 12 15  1  0  0  0  0
 15 16  1  0  0  0  0
 16 21  2  0  0  0  0
 16 17  1  0  0  0  0
 17 18  2  0  0  0  0
 17 37  1  0  0  0  0
 18 19  1  0  0  0  0
 18 38  1  0  0  0  0
 19 20  2  0  0  0  0
 19 22  1  0  0  0  0
 20 21  1  0  0  0  0
 20 39  1  0  0  0  0
 21 40  1  0  0  0  0
 22 23  1  0  0  0  0
 22 41  1  0  0  0  0
 22 42  1  0  0  0  0
 23 28  1  0  0  0  0
 23 24  1  0  0  0  0
 24 25  2  0  0  0  0
 24 26  1  0  0  0  0
 26 27  1  0  0  0  0
 26 43  1  0  0  0  0
 26 44  1  0  0  0  0
 27 28  1  0  0  0  0
 27 45  1  0  0  0  0
 27 46  1  0  0  0  0
 28 29  2  0  0  0  0
M  END
$$$$
ZINC46811269
 OpenBabel01252620473D

 39 41  0  0  0  0  0  0  0  0999 V2000
   -0.0187    1.5258    0.0104 C   0  0  0  0  0  0  0  0  0  0  0  0
    0.0021   -0.0041    0.0020 C   0  0  0  0  0  0  0  0  0  0  0  0
    0.6932   -0.4774    1.1597 O   0  0  0  0  0  0  0  0  0  0  0  0
    0.8006   -1.8076    1.3039 C   0  0  0  0  0  0  0  0  0  0  0  0
    0.3237   -2.5457    0.4746 O   0  0  0  0  0  0  0  0  0  0  0  0
    1.5162   -2.3806    2.5000 C   0  0  0  0  0  0  0  0  0  0  0  0
    1.4965   -3.8855    2.4238 C   0  0  0  0  0  0  0  0  0  0  0  0
    2.6395   -4.6125    2.4821 C   0  0  0  0  0  0  0  0  0  0  0  0
    1.9876   -6.2691    2.3461 S   0  0  0  0  0  0  0  0  0  0  0  0
    0.3569   -5.8687    2.2315 C   0  0  0  0  0  0  0  0  0  0  0  0
    0.3653   -4.5550    2.3029 N   0  0  0  0  0  0  0  0  0  0  0  0
   -0.7332   -6.7189    2.0990 N   0  0  0  0  0  0  0  0  0  0  0  0
   -0.5454   -8.0525    2.0484 C   0  0  0  0  0  0  0  0  0  0  0  0
    0.5778   -8.5111    2.1187 O   0  0  0  0  0  0  0  0  0  0  0  0
   -1.7077   -8.9590    1.9071 C   0  0  0  0  0  0  0  0  0  0  0  0
   -3.0019   -8.4220    1.8207 C   0  0  0  0  0  0  0  0  0  0  0  0
   -4.0864   -9.2348    1.6904 C   0  0  0  0  0  0  0  0  0  0  0  0
   -3.9154  -10.6256    1.6409 C   0  0  0  0  0  0  0  0  0  0  0  0
   -2.6124  -11.1826    1.7267 C   0  0  0  0  0  0  0  0  0  0  0  0
   -1.5074  -10.3290    1.8558 C   0  0  0  0  0  0  0  0  0  0  0  0
   -2.4663  -12.5143    1.6773 N   0  0  0  0  0  0  0  0  0  0  0  0
   -3.5197  -13.3065    1.5502 C   0  0  0  0  0  0  0  0  0  0  0  0
   -4.7726  -12.8295    1.4645 N   0  0  0  0  0  0  0  0  0  0  0  0
   -5.5145  -13.4475    1.3719 H   0  0  0  0  0  0  0  0  0  0  0  0
   -5.0137  -11.5012    1.5061 C   0  0  0  0  0  0  0  0  0  0  0  0
   -6.2683  -11.0253    1.4211 O   0  5  0  0  0  0  0  0  0  0  0  0
   -3.2761  -15.0000    1.4923 S   0  0  0  0  0  0  0  0  0  0  0  0
    1.0039    1.9031    0.0027 H   0  0  0  0  0  0  0  0  0  0  0  0
   -0.5459    1.8868   -0.8726 H   0  0  0  0  0  0  0  0  0  0  0  0
   -0.5289    1.8773    0.9072 H   0  0  0  0  0  0  0  0  0  0  0  0
   -1.0205   -0.3814    0.0098 H   0  0  0  0  0  0  0  0  0  0  0  0
    0.5123   -0.3556   -0.8948 H   0  0  0  0  0  0  0  0  0  0  0  0
    2.5484   -2.0306    2.5079 H   0  0  0  0  0  0  0  0  0  0  0  0
    1.0156   -2.0564    3.4125 H   0  0  0  0  0  0  0  0  0  0  0  0
    3.6624   -4.2809    2.5826 H   0  0  0  0  0  0  0  0  0  0  0  0
   -1.6297   -6.3528    2.0429 H   0  0  0  0  0  0  0  0  0  0  0  0
   -3.1390   -7.3514    1.8583 H   0  0  0  0  0  0  0  0  0  0  0  0
   -5.0768   -8.8089    1.6257 H   0  0  0  0  0  0  0  0  0  0  0  0
   -0.5091  -10.7361    1.9183 H   0  0  0  0  0  0  0  0  0  0  0  0
  1  2  1  0  0  0  0
  1 28  1  0  0  0  0
  1 29  1  0  0  0  0
  1 30  1  0  0  0  0
  2  3  1  0  0  0  0
  2 31  1  0  0  0  0
  2 32  1  0  0  0  0
  3  4  1  0  0  0  0
  4  5  2  0  0  0  0
  4  6  1  0  0  0  0
  6  7  1  0  0  0  0
  6 33  1  0  0  0  0
  6 34  1  0  0  0  0
  7 11  1  0  0  0  0
  7  8  2  0  0  0  0
  8  9  1  0  0  0  0
  8 35  1  0  0  0  0
  9 10  1  0  0  0  0
 10 11  2  0  0  0  0
 10 12  1  0  0  0  0
 12 13  1  0  0  0  0
 12 36  1  0  0  0  0
 13 14  2  0  0  0  0
 13 15  1  0  0  0  0
 15 20  2  0  0  0  0
 15 16  1  0  0  0  0
 16 17  2  0  0  0  0
 16 37  1  0  0  0  0
 17 18  1  0  0  0  0
 17 38  1  0  0  0  0
 18 25  2  0  0  0  0
 18 19  1  0  0  0  0
 19 20  1  0  0  0  0
 19 21  2  0  0  0  0
 20 39  1  0  0  0  0
 21 22  1  0  0  0  0
 22 23  1  0  0  0  0
 22 27  2  0  0  0  0
 23 24  1  0  0  0  0
 23 25  1  0  0  0  0
 25 26  1  0  0  0  0
M  CHG  1  26  -1
M  END
$$$$
ZINC39380029
 OpenBabel01252620473D

 49 51  0  0  1  0  0  0  0  0999 V2000
    0.0491    1.5184    0.0530 C   0  0  0  0  0  0  0  0  0  0  0  0
    0.0472   -0.0115    0.0311 C   0  0  0  0  0  0  0  0  0  0  0  0
    0.7617   -0.5044   -1.2288 C   0  0  0  0  0  0  0  0  0  0  0  0
    0.7594   -2.3182   -1.2548 S   0  0  0  0  0  0  0  0  0  0  0  0
    1.6065   -2.7243   -2.7455 C   0  0  0  0  0  0  0  0  0  0  0  0
    2.0463   -1.7191   -3.4886 N   0  0  0  0  0  0  0  0  0  0  0  0
    2.8411   -1.9152   -4.5421 C   0  0  0  0  0  0  0  0  0  0  0  0
    3.2372   -0.9912   -5.2264 O   0  0  0  0  0  0  0  0  0  0  0  0
    3.2239   -3.3488   -4.8398 C   0  0  2  0  0  0  0  0  0  0  0  0
    4.2893   -3.4580   -4.6371 H   0  0  0  0  0  0  0  0  0  0  0  0
    3.0096   -3.6225   -6.3232 C   0  0  1  0  0  0  0  0  0  0  0  0
    3.6817   -2.9977   -6.9115 H   0  0  0  0  0  0  0  0  0  0  0  0
    3.3063   -5.0804   -6.5921 C   0  0  0  0  0  0  0  0  0  0  0  0
    3.0046   -6.0304   -5.6268 C   0  0  0  0  0  0  0  0  0  0  0  0
    2.5116   -5.6743   -4.4518 N   0  0  0  0  0  0  0  0  0  0  0  0
    2.4914   -4.4142   -4.0525 C   0  0  0  0  0  0  0  0  0  0  0  0
    1.7570   -4.0154   -3.0305 N   0  0  0  0  0  0  0  0  0  0  0  0
    3.2415   -7.4892   -5.9213 C   0  0  0  0  0  0  0  0  0  0  0  0
    3.8739   -5.4645   -7.7916 C   0  0  0  0  0  0  0  0  0  0  0  0
    4.0529   -4.5591   -8.7722 O   0  5  0  0  0  0  0  0  0  0  0  0
    4.2480   -6.7442   -7.9803 O   0  0  0  0  0  0  0  0  0  0  0  0
    4.8281   -7.0708   -9.2448 C   0  0  0  0  0  0  0  0  0  0  0  0
    5.1812   -8.5356   -9.2721 C   0  0  0  0  0  0  0  0  0  0  0  0
    4.8853   -9.2612  -10.3219 C   0  0  0  0  0  0  0  0  0  0  0  0
    1.5811   -3.3165   -6.6929 C   0  0  0  0  0  0  0  0  0  0  0  0
    1.2943   -2.3585   -7.6536 C   0  0  0  0  0  0  0  0  0  0  0  0
   -0.0343   -2.1101   -7.9617 C   0  0  0  0  0  0  0  0  0  0  0  0
   -1.0220   -2.8205   -7.3056 C   0  0  0  0  0  0  0  0  0  0  0  0
   -0.7122   -3.7242   -6.3968 N   0  0  0  0  0  0  0  0  0  0  0  0
    0.5407   -3.9910   -6.0830 C   0  0  0  0  0  0  0  0  0  0  0  0
    1.0772    1.8804    0.0531 H   0  0  0  0  0  0  0  0  0  0  0  0
   -0.4686    1.8950   -0.8292 H   0  0  0  0  0  0  0  0  0  0  0  0
   -0.4599    1.8696    0.9505 H   0  0  0  0  0  0  0  0  0  0  0  0
    0.5649   -0.3881    0.9133 H   0  0  0  0  0  0  0  0  0  0  0  0
   -0.9809   -0.3735    0.0309 H   0  0  0  0  0  0  0  0  0  0  0  0
    0.2440   -0.1278   -2.1110 H   0  0  0  0  0  0  0  0  0  0  0  0
    1.7898   -0.1423   -1.2286 H   0  0  0  0  0  0  0  0  0  0  0  0
    4.3097   -7.6657   -6.0468 H   0  0  0  0  0  0  0  0  0  0  0  0
    2.8684   -8.0923   -5.0934 H   0  0  0  0  0  0  0  0  0  0  0  0
    2.7176   -7.7649   -6.8365 H   0  0  0  0  0  0  0  0  0  0  0  0
    4.1136   -6.8544  -10.0390 H   0  0  0  0  0  0  0  0  0  0  0  0
    5.7295   -6.4768   -9.3953 H   0  0  0  0  0  0  0  0  0  0  0  0
    5.6782   -8.9871   -8.4263 H   0  0  0  0  0  0  0  0  0  0  0  0
    5.1384  -10.3109  -10.3415 H   0  0  0  0  0  0  0  0  0  0  0  0
    4.3883   -8.8097  -11.1678 H   0  0  0  0  0  0  0  0  0  0  0  0
    2.0871   -1.8185   -8.1498 H   0  0  0  0  0  0  0  0  0  0  0  0
   -0.2944   -1.3706   -8.7046 H   0  0  0  0  0  0  0  0  0  0  0  0
   -2.0595   -2.6329   -7.5398 H   0  0  0  0  0  0  0  0  0  0  0  0
    0.7558   -4.7420   -5.3372 H   0  0  0  0  0  0  0  0  0  0  0  0
  1  2  1  0  0  0  0
  1 31  1  0  0  0  0
  1 32  1  0  0  0  0
  1 33  1  0  0  0  0
  2  3  1  0  0  0  0
  2 34  1  0  0  0  0
  2 35  1  0  0  0  0
  3  4  1  0  0  0  0
  3 36  1  0  0  0  0
  3 37  1  0  0  0  0
  4  5  1  0  0  0  0
  5 17  1  0  0  0  0
  5  6  2  0  0  0  0
  6  7  1  0  0  0  0
  7  8  2  0  0  0  0
  7  9  1  0  0  0  0
  9 10  1  1  0  0  0
  9 16  1  0  0  0  0
  9 11  1  0  0  0  0
 11 12  1  6  0  0  0
 11 13  1  0  0  0  0
 11 25  1  0  0  0  0
 13 14  1  0  0  0  0
 13 19  2  0  0  0  0
 14 15  2  0  0  0  0
 14 18  1  0  0  0  0
 15 16  1  0  0  0  0
 16 17  2  0  0  0  0
 18 38  1  0  0  0  0
 18 39  1  0  0  0  0
 18 40  1  0  0  0  0
 19 20  1  0  0  0  0
 19 21  1  0  0  0  0
 21 22  1  0  0  0  0
 22 23  1  0  0  0  0
 22 41  1  0  0  0  0
 22 42  1  0  0  0  0
 23 24  2  0  0  0  0
 23 43  1  0  0  0  0
 24 44  1  0  0  0  0
 24 45  1  0  0  0  0
 25 30  2  0  0  0  0
 25 26  1  0  0  0  0
 26 27  2  0  0  0  0
 26 46  1  0  0  0  0
 27 28  1  0  0  0  0
 27 47  1  0  0  0  0
 28 29  2  0  0  0  0
 28 48  1  0  0  0  0
 29 30  1  0  0  0  0
 30 49  1  0  0  0  0
M  CHG  1  20  -1
M  END
$$$$
ZINC13219948
 OpenBabel01252620473D

 47 49  0  0  0  0  0  0  0  0999 V2000
    1.3717   -0.7076    0.5432 C   0  0  0  0  0  0  0  0  0  0  0  0
    0.0913    0.0041    0.5570 N   0  0  0  0  0  0  0  0  0  0  0  0
   -0.0132    1.2146   -0.0265 C   0  0  0  0  0  0  0  0  0  0  0  0
    0.9552    1.7158   -0.5642 O   0  0  0  0  0  0  0  0  0  0  0  0
   -1.3016    1.9343   -0.0073 C   0  0  0  0  0  0  0  0  0  0  0  0
   -2.4172    1.3571    0.6053 C   0  0  0  0  0  0  0  0  0  0  0  0
   -3.6159    2.0339    0.6269 C   0  0  0  0  0  0  0  0  0  0  0  0
   -3.7206    3.2857    0.0287 C   0  0  0  0  0  0  0  0  0  0  0  0
   -2.6134    3.8607   -0.5871 C   0  0  0  0  0  0  0  0  0  0  0  0
   -1.4102    3.1920   -0.6068 C   0  0  0  0  0  0  0  0  0  0  0  0
   -4.9378    3.9657    0.0469 N   0  0  0  0  0  0  0  0  0  0  0  0
   -4.9578    5.3089    0.1560 C   0  0  0  0  0  0  0  0  0  0  0  0
   -3.9179    5.9329    0.1546 O   0  0  0  0  0  0  0  0  0  0  0  0
   -6.2723    6.0354    0.2796 C   0  0  0  0  0  0  0  0  0  0  0  0
   -5.9684    7.8150    0.4078 S   0  0  0  0  0  0  0  0  0  0  0  0
   -7.6255    8.3999    0.5370 C   0  0  0  0  0  0  0  0  0  0  0  0
   -8.6003    7.5248    0.5150 N   0  0  0  0  0  0  0  0  0  0  0  0
   -9.8962    7.9048    0.6103 C   0  0  0  0  0  0  0  0  0  0  0  0
  -10.9343    6.9691    0.5870 C   0  0  0  0  0  0  0  0  0  0  0  0
  -12.2492    7.4058    0.6882 C   0  0  0  0  0  0  0  0  0  0  0  0
  -12.5369    8.7713    0.8128 C   0  0  0  0  0  0  0  0  0  0  0  0
  -11.5310    9.6942    0.8367 C   0  0  0  0  0  0  0  0  0  0  0  0
  -10.2038    9.2782    0.7365 C   0  0  0  0  0  0  0  0  0  0  0  0
   -9.0891   10.2388    0.7585 C   0  0  0  0  0  0  0  0  0  0  0  0
   -9.2891   11.4346    0.8647 O   0  0  0  0  0  0  0  0  0  0  0  0
   -7.8337    9.7438    0.6611 N   0  0  0  0  0  0  0  0  0  0  0  0
   -6.6887   10.6574    0.6837 C   0  0  0  0  0  0  0  0  0  0  0  0
  -13.3537    6.4217    0.6648 C   0  0  0  0  0  0  0  0  0  0  0  0
  -13.1093    5.2370    0.5574 O   0  0  0  0  0  0  0  0  0  0  0  0
    2.1273   -0.1058    1.0481 H   0  0  0  0  0  0  0  0  0  0  0  0
    1.2626   -1.6616    1.0590 H   0  0  0  0  0  0  0  0  0  0  0  0
    1.6777   -0.8850   -0.4878 H   0  0  0  0  0  0  0  0  0  0  0  0
   -0.6813   -0.3958    0.9860 H   0  0  0  0  0  0  0  0  0  0  0  0
   -2.3378    0.3833    1.0656 H   0  0  0  0  0  0  0  0  0  0  0  0
   -4.4770    1.5906    1.1047 H   0  0  0  0  0  0  0  0  0  0  0  0
   -2.6979    4.8329   -1.0499 H   0  0  0  0  0  0  0  0  0  0  0  0
   -0.5510    3.6391   -1.0847 H   0  0  0  0  0  0  0  0  0  0  0  0
   -5.7702    3.4720   -0.0190 H   0  0  0  0  0  0  0  0  0  0  0  0
   -6.8832    5.8335   -0.6003 H   0  0  0  0  0  0  0  0  0  0  0  0
   -6.7953    5.6909    1.1718 H   0  0  0  0  0  0  0  0  0  0  0  0
  -10.7161    5.9158    0.4914 H   0  0  0  0  0  0  0  0  0  0  0  0
  -13.5637    9.0968    0.8902 H   0  0  0  0  0  0  0  0  0  0  0  0
  -11.7629   10.7446    0.9331 H   0  0  0  0  0  0  0  0  0  0  0  0
   -6.4539   10.9708   -0.3335 H   0  0  0  0  0  0  0  0  0  0  0  0
   -6.9338   11.5322    1.2860 H   0  0  0  0  0  0  0  0  0  0  0  0
   -5.8267   10.1489    1.1154 H   0  0  0  0  0  0  0  0  0  0  0  0
  -14.6303    6.8397    0.7626 O   0  0  0  0  0  1  0  0  0  0  0  0
  1  2  1  0  0  0  0
  1 30  1  0  0  0  0
  1 31  1  0  0  0  0
  1 32  1  0  0  0  0
  2  3  1  0  0  0  0
  2 33  1  0  0  0  0
  3  4  2  0  0  0  0
  3  5  1  0  0  0  0
  5 10  2  0  0  0  0
  5  6  1  0  0  0  0
  6  7  2  0  0  0  0
  6 34  1  0  0  0  0
  7  8  1  0  0  0  0
  7 35  1  0  0  0  0
  8  9  2  0  0  0  0
  8 11  1  0  0  0  0
  9 10  1  0  0  0  0
  9 36  1  0  0  0  0
 10 37  1  0  0  0  0
 11 12  1  0  0  0  0
 11 38  1  0  0  0  0
 12 13  2  0  0  0  0
 12 14  1  0  0  0  0
 14 15  1  0  0  0  0
 14 39  1  0  0  0  0
 14 40  1  0  0  0  0
 15 16  1  0  0  0  0
 16 26  1  0  0  0  0
 16 17  2  0  0  0  0
 17 18  1  0  0  0  0
 18 23  2  0  0  0  0
 18 19  1  0  0  0  0
 19 20  2  0  0  0  0
 19 41  1  0  0  0  0
 20 21  1  0  0  0  0
 20 28  1  0  0  0  0
 21 22  2  0  0  0  0
 21 42  1  0  0  0  0
 22 23  1  0  0  0  0
 22 43  1  0  0  0  0
 23 24  1  0  0  0  0
 24 25  2  0  0  0  0
 24 26  1  0  0  0  0
 26 27  1  0  0  0  0
 27 44  1  0  0  0  0
 27 45  1  0  0  0  0
 27 46  1  0  0  0  0
 28 29  2  0  0  0  0
 28 47  1  0  0  0  0
M  END
$$$$
ZINC39937432
 OpenBabel01252620473D

 69 70  0  0  1  0  0  0  0  0999 V2000
   -2.3791   -1.7547   -2.5890 C   0  0  0  0  0  0  0  0  0  0  0  0
   -1.2050   -1.6903   -1.6465 C   0  0  0  0  0  0  0  0  0  0  0  0
   -1.2152   -0.7675   -0.6994 C   0  0  0  0  0  0  0  0  0  0  0  0
   -0.1090   -0.5864    0.2989 C   0  0  0  0  0  0  0  0  0  0  0  0
    0.7734   -1.8357    0.3395 C   0  0  0  0  0  0  0  0  0  0  0  0
    1.1633   -2.2039   -1.0972 C   0  0  0  0  0  0  0  0  0  0  0  0
   -0.0928   -2.6812   -1.8319 C   0  0  0  0  0  0  0  0  0  0  0  0
    0.7408    0.6220   -0.0994 C   0  0  0  0  0  0  0  0  0  0  0  0
   -0.7108   -0.3452    1.6847 C   0  0  0  0  0  0  0  0  0  0  0  0
   -2.3340    0.1001   -0.6229 C   0  0  0  0  0  0  0  0  0  0  0  0
   -3.5817   -0.4129   -0.4626 C   0  0  0  0  0  0  0  0  0  0  0  0
   -4.6807    0.4492   -0.2977 C   0  0  0  0  0  0  0  0  0  0  0  0
   -5.9335   -0.0659   -0.1369 C   0  0  0  0  0  0  0  0  0  0  0  0
   -7.0297    0.7941    0.0276 C   0  0  0  0  0  0  0  0  0  0  0  0
   -8.2839    0.2784    0.1887 C   0  0  0  0  0  0  0  0  0  0  0  0
   -9.3800    1.1383    0.3532 C   0  0  0  0  0  0  0  0  0  0  0  0
  -10.6122    0.6262    0.6354 C   0  0  0  0  0  0  0  0  0  0  0  0
  -10.7512   -0.7393    0.9569 C   0  0  0  0  0  0  0  0  0  0  0  0
   -9.7619   -1.4328    1.1083 O   0  0  0  0  0  0  0  0  0  0  0  0
  -11.9815   -1.2782    1.0968 O   0  0  0  0  0  0  0  0  0  0  0  0
  -12.0478   -2.6679    1.4231 C   0  0  2  0  0  0  0  0  0  0  0  0
  -11.4134   -3.2324    0.7397 H   0  0  0  0  0  0  0  0  0  0  0  0
  -13.4941   -3.1537    1.2962 C   0  0  1  0  0  0  0  0  0  0  0  0
  -13.5390   -4.2225    1.5055 H   0  0  0  0  0  0  0  0  0  0  0  0
  -14.3684   -2.3980    2.3015 C   0  0  2  0  0  0  0  0  0  0  0  0
  -14.3632   -1.3346    2.0622 H   0  0  0  0  0  0  0  0  0  0  0  0
  -13.8059   -2.6089    3.7105 C   0  0  2  0  0  0  0  0  0  0  0  0
  -14.3894   -2.0297    4.4262 H   0  0  0  0  0  0  0  0  0  0  0  0
  -12.3476   -2.1441    3.7442 C   0  0  2  0  0  0  0  0  0  0  0  0
  -12.3010   -1.0773    3.5257 H   0  0  0  0  0  0  0  0  0  0  0  0
  -11.5965   -2.8645    2.7647 O   0  0  0  0  0  0  0  0  0  0  0  0
  -11.7692   -2.4028    5.1115 C   0  0  0  0  0  0  0  0  0  0  0  0
  -10.8615   -3.2053    5.2475 O   0  0  0  0  0  0  0  0  0  0  0  0
  -12.2089   -1.8096    6.0817 O   0  0  0  0  0  1  0  0  0  0  0  0
  -13.8744   -3.9954    4.0495 O   0  0  0  0  0  0  0  0  0  0  0  0
  -15.7067   -2.8953    2.2398 O   0  0  0  0  0  0  0  0  0  0  0  0
  -13.9662   -2.9066   -0.0298 O   0  0  0  0  0  0  0  0  0  0  0  0
   -9.1961    2.6279    0.2180 C   0  0  0  0  0  0  0  0  0  0  0  0
   -4.4741    1.9420   -0.2988 C   0  0  0  0  0  0  0  0  0  0  0  0
   -2.1841   -2.4980   -3.3620 H   0  0  0  0  0  0  0  0  0  0  0  0
   -3.2752   -2.0336   -2.0346 H   0  0  0  0  0  0  0  0  0  0  0  0
   -2.5272   -0.7792   -3.0521 H   0  0  0  0  0  0  0  0  0  0  0  0
    1.6719   -1.6306    0.9216 H   0  0  0  0  0  0  0  0  0  0  0  0
    0.2211   -2.6595    0.7915 H   0  0  0  0  0  0  0  0  0  0  0  0
    1.5756   -1.3293   -1.6003 H   0  0  0  0  0  0  0  0  0  0  0  0
    1.9036   -3.0038   -1.0821 H   0  0  0  0  0  0  0  0  0  0  0  0
   -0.4013   -3.6488   -1.4361 H   0  0  0  0  0  0  0  0  0  0  0  0
    0.1284   -2.7814   -2.8945 H   0  0  0  0  0  0  0  0  0  0  0  0
    0.1163    1.5152   -0.1173 H   0  0  0  0  0  0  0  0  0  0  0  0
    1.5448    0.7552    0.6245 H   0  0  0  0  0  0  0  0  0  0  0  0
    1.1666    0.4565   -1.0890 H   0  0  0  0  0  0  0  0  0  0  0  0
   -1.2504   -1.2359    2.0065 H   0  0  0  0  0  0  0  0  0  0  0  0
    0.0873   -0.1276    2.3945 H   0  0  0  0  0  0  0  0  0  0  0  0
   -1.3980    0.4997    1.6403 H   0  0  0  0  0  0  0  0  0  0  0  0
   -2.1943    1.1688   -0.6920 H   0  0  0  0  0  0  0  0  0  0  0  0
   -3.7298   -1.4827   -0.4619 H   0  0  0  0  0  0  0  0  0  0  0  0
   -6.0815   -1.1357   -0.1361 H   0  0  0  0  0  0  0  0  0  0  0  0
   -6.8817    1.8639    0.0269 H   0  0  0  0  0  0  0  0  0  0  0  0
   -8.4319   -0.7914    0.1895 H   0  0  0  0  0  0  0  0  0  0  0  0
  -11.4814    1.2668    0.6127 H   0  0  0  0  0  0  0  0  0  0  0  0
  -13.5341   -4.2022    4.9307 H   0  0  0  0  0  0  0  0  0  0  0  0
  -16.1224   -2.7990    1.3720 H   0  0  0  0  0  0  0  0  0  0  0  0
  -13.4545   -3.3520   -0.7189 H   0  0  0  0  0  0  0  0  0  0  0  0
   -9.3545    2.9209   -0.8198 H   0  0  0  0  0  0  0  0  0  0  0  0
   -9.9161    3.1422    0.8547 H   0  0  0  0  0  0  0  0  0  0  0  0
   -8.1847    2.8982    0.5215 H   0  0  0  0  0  0  0  0  0  0  0  0
   -4.5627    2.3203   -1.3172 H   0  0  0  0  0  0  0  0  0  0  0  0
   -5.2286    2.4136    0.3309 H   0  0  0  0  0  0  0  0  0  0  0  0
   -3.4818    2.1717    0.0892 H   0  0  0  0  0  0  0  0  0  0  0  0
  1  2  1  0  0  0  0
  1 40  1  0  0  0  0
  1 41  1  0  0  0  0
  1 42  1  0  0  0  0
  2  7  1  0  0  0  0
  2  3  2  0  0  0  0
  3  4  1  0  0  0  0
  3 10  1  0  0  0  0
  4  5  1  0  0  0  0
  4  8  1  0  0  0  0
  4  9  1  0  0  0  0
  5  6  1  0  0  0  0
  5 43  1  0  0  0  0
  5 44  1  0  0  0  0
  6  7  1  0  0  0  0
  6 45  1  0  0  0  0
  6 46  1  0  0  0  0
  7 47  1  0  0  0  0
  7 48  1  0  0  0  0
  8 49  1  0  0  0  0
  8 50  1  0  0  0  0
  8 51  1  0  0  0  0
  9 52  1  0  0  0  0
  9 53  1  0  0  0  0
  9 54  1  0  0  0  0
 10 11  2  0  0  0  0
 10 55  1  0  0  0  0
 11 12  1  0  0  0  0
 11 56  1  0  0  0  0
 12 13  2  0  0  0  0
 12 39  1  0  0  0  0
 13 14  1  0  0  0  0
 13 57  1  0  0  0  0
 14 15  2  0  0  0  0
 14 58  1  0  0  0  0
 15 16  1  0  0  0  0
 15 59  1  0  0  0  0
 16 17  2  0  0  0  0
 16 38  1  0  0  0  0
 17 18  1  0  0  0  0
 17 60  1  0  0  0  0
 18 19  2  0  0  0  0
 18 20  1  0  0  0  0
 20 21  1  0  0  0  0
 21 22  1  6  0  0  0
 21 31  1  0  0  0  0
 21 23  1  0  0  0  0
 23 24  1  1  0  0  0
 23 25  1  0  0  0  0
 23 37  1  0  0  0  0
 25 26  1  6  0  0  0
 25 27  1  0  0  0  0
 25 36  1  0  0  0  0
 27 28  1  1  0  0  0
 27 29  1  0  0  0  0
 27 35  1  0  0  0  0
 29 30  1  6  0  0  0
 29 31  1  0  0  0  0
 29 32  1  0  0  0  0
 32 33  2  0  0  0  0
 32 34  1  0  0  0  0
 35 61  1  0  0  0  0
 36 62  1  0  0  0  0
 37 63  1  0  0  0  0
 38 64  1  0  0  0  0
 38 65  1  0  0  0  0
 38 66  1  0  0  0  0
 39 67  1  0  0  0  0
 39 68  1  0  0  0  0
 39 69  1  0  0  0  0
M  END
$$$$
ZINC02113856
 OpenBabel01252620473D

 40 41  0  0  0  0  0  0  0  0999 V2000
   -1.0425   -2.1931   -2.4933 C   0  0  0  0  0  0  0  0  0  0  0  0
   -0.8804   -2.9156   -1.1807 C   0  0  0  0  0  0  0  0  0  0  0  0
   -0.5875   -4.3498   -1.1429 C   0  0  0  0  0  0  0  0  0  0  0  0
   -0.4506   -5.0888   -2.3239 C   0  0  0  0  0  0  0  0  0  0  0  0
   -0.1839   -6.4263   -2.2600 C   0  0  0  0  0  0  0  0  0  0  0  0
   -0.0470   -7.0607   -1.0255 C   0  0  0  0  0  0  0  0  0  0  0  0
   -0.1790   -6.3442    0.1521 C   0  0  0  0  0  0  0  0  0  0  0  0
   -0.4504   -4.9848    0.1053 C   0  0  0  0  0  0  0  0  0  0  0  0
   -0.5840   -4.2685    1.2422 O   0  0  0  0  0  0  0  0  0  0  0  0
   -0.8470   -2.9526    1.2143 C   0  0  0  0  0  0  0  0  0  0  0  0
   -0.9591   -2.3475    2.2654 O   0  0  0  0  0  0  0  0  0  0  0  0
   -0.9972   -2.2530   -0.0005 C   0  0  0  0  0  0  0  0  0  0  0  0
   -1.2926   -0.7753    0.0102 C   0  0  0  0  0  0  0  0  0  0  0  0
    0.0021   -0.0041    0.0020 C   0  0  0  0  0  0  0  0  0  0  0  0
    1.0605   -0.5961   -0.0113 O   0  0  0  0  0  0  0  0  0  0  0  0
   -0.0162    1.3436    0.0094 N   0  0  0  0  0  0  0  0  0  0  0  0
    1.2424    2.0932    0.0014 C   0  0  0  0  0  0  0  0  0  0  0  0
    0.9470    3.5710    0.0122 C   0  0  0  0  0  0  0  0  0  0  0  0
   -0.2018    3.9596    0.0253 O   0  0  0  0  0  0  0  0  0  0  0  0
    1.9594    4.4606    0.0073 N   0  0  0  0  0  0  0  0  0  0  0  0
    1.6722    5.8972    0.0178 C   0  0  0  0  0  0  0  0  0  0  0  0
    2.9669    6.6684    0.0095 C   0  0  0  0  0  0  0  0  0  0  0  0
    4.0213    6.0785   -0.0037 O   0  0  0  0  0  0  0  0  0  0  0  0
    0.2182   -8.3913   -0.9780 O   0  0  0  0  0  0  0  0  0  0  0  0
   -0.0135   -7.3428   -3.7245 Cl  0  0  0  0  0  0  0  0  0  0  0  0
   -0.0740   -1.8173   -2.8232 H   0  0  0  0  0  0  0  0  0  0  0  0
   -1.4390   -2.8810   -3.2401 H   0  0  0  0  0  0  0  0  0  0  0  0
   -1.7319   -1.3584   -2.3659 H   0  0  0  0  0  0  0  0  0  0  0  0
   -0.5559   -4.6025   -3.2825 H   0  0  0  0  0  0  0  0  0  0  0  0
   -0.0713   -6.8425    1.1043 H   0  0  0  0  0  0  0  0  0  0  0  0
   -1.8592   -0.5245    0.9070 H   0  0  0  0  0  0  0  0  0  0  0  0
   -1.8762   -0.5150   -0.8728 H   0  0  0  0  0  0  0  0  0  0  0  0
   -0.8627    1.8171    0.0160 H   0  0  0  0  0  0  0  0  0  0  0  0
    1.8260    1.8329    0.8845 H   0  0  0  0  0  0  0  0  0  0  0  0
    1.8090    1.8425   -0.8954 H   0  0  0  0  0  0  0  0  0  0  0  0
    2.8782    4.1498   -0.0031 H   0  0  0  0  0  0  0  0  0  0  0  0
    1.0886    6.1575   -0.8653 H   0  0  0  0  0  0  0  0  0  0  0  0
    1.1056    6.1479    0.9146 H   0  0  0  0  0  0  0  0  0  0  0  0
    1.1614   -8.6044   -0.9717 H   0  0  0  0  0  0  0  0  0  0  0  0
    2.9487    8.0105    0.0169 O   0  0  0  0  0  1  0  0  0  0  0  0
  1  2  1  0  0  0  0
  1 26  1  0  0  0  0
  1 27  1  0  0  0  0
  1 28  1  0  0  0  0
  2 12  2  0  0  0  0
  2  3  1  0  0  0  0
  3  8  2  0  0  0  0
  3  4  1  0  0  0  0
  4  5  2  0  0  0  0
  4 29  1  0  0  0  0
  5  6  1  0  0  0  0
  5 25  1  0  0  0  0
  6  7  2  0  0  0  0
  6 24  1  0  0  0  0
  7  8  1  0  0  0  0
  7 30  1  0  0  0  0
  8  9  1  0  0  0  0
  9 10  1  0  0  0  0
 10 11  2  0  0  0  0
 10 12  1  0  0  0  0
 12 13  1  0  0  0  0
 13 14  1  0  0  0  0
 13 31  1  0  0  0  0
 13 32  1  0  0  0  0
 14 15  2  0  0  0  0
 14 16  1  0  0  0  0
 16 17  1  0  0  0  0
 16 33  1  0  0  0  0
 17 18  1  0  0  0  0
 17 34  1  0  0  0  0
 17 35  1  0  0  0  0
 18 19  2  0  0  0  0
 18 20  1  0  0  0  0
 20 21  1  0  0  0  0
 20 36  1  0  0  0  0
 21 22  1  0  0  0  0
 21 37  1  0  0  0  0
 21 38  1  0  0  0  0
 22 23  2  0  0  0  0
 22 40  1  0  0  0  0
 24 39  1  0  0  0  0
M  END
$$$$
ZINC27979441
 OpenBabel01252620473D

 41 43  0  0  1  0  0  0  0  0999 V2000
   -1.2874   -3.8246   -3.7213 C   0  0  0  0  0  0  0  0  0  0  0  0
   -1.3319   -2.4388   -3.3756 O   0  0  0  0  0  0  0  0  0  0  0  0
   -1.8843   -2.1217   -2.1863 C   0  0  0  0  0  0  0  0  0  0  0  0
   -2.3162   -2.9990   -1.4632 O   0  0  0  0  0  0  0  0  0  0  0  0
   -1.9638   -0.7223   -1.7664 C   0  0  0  0  0  0  0  0  0  0  0  0
   -2.5174   -0.4045   -0.5743 C   0  0  0  0  0  0  0  0  0  0  0  0
   -2.4931    0.9833   -0.1013 C   0  0  0  0  0  0  0  0  0  0  0  0
   -3.6951    1.6559    0.0175 C   0  0  0  0  0  0  0  0  0  0  0  0
   -3.7087    2.9913    0.4051 N   0  0  0  0  0  0  0  0  0  0  0  0
   -2.6778    3.7410    1.1672 C   0  0  2  0  0  0  0  0  0  0  0  0
   -2.6210    3.6929    2.2647 H   0  0  0  0  0  0  0  0  0  0  0  0
   -3.3558    4.9681    0.6611 C   0  0  0  0  0  0  0  0  0  0  0  0
   -3.0907    6.2882    0.6205 C   0  0  0  0  0  0  0  0  0  0  0  0
   -1.8335    6.8051    1.1894 C   0  0  0  0  0  0  0  0  0  0  0  0
   -1.5638    8.1750    1.1445 C   0  0  0  0  0  0  0  0  0  0  0  0
   -0.3785    8.6444    1.6838 C   0  0  0  0  0  0  0  0  0  0  0  0
    0.4990    7.7313    2.2505 C   0  0  0  0  0  0  0  0  0  0  0  0
    0.1683    6.3864    2.2611 C   0  0  0  0  0  0  0  0  0  0  0  0
   -0.9669    5.9650    1.7466 N   0  0  0  0  0  0  0  0  0  0  0  0
   -4.4396    4.0867    0.2285 C   0  0  0  0  0  0  0  0  0  0  0  0
   -5.5794    4.2824   -0.1501 O   0  0  0  0  0  0  0  0  0  0  0  0
   -1.0748    3.3533    0.3879 S   0  0  0  0  0  0  0  0  0  0  0  0
   -0.0063    3.5801    1.2968 O   0  0  0  0  0  0  0  0  0  0  0  0
   -1.0312    3.8556   -0.9406 O   0  0  0  0  0  0  0  0  0  0  0  0
   -1.1875    1.5884    0.2222 C   0  0  0  0  0  0  0  0  0  0  0  0
   -0.1124    0.8240    0.3926 C   0  0  0  0  0  0  0  0  0  0  0  0
   -4.9588    0.9595   -0.2663 C   0  0  0  0  0  0  0  0  0  0  0  0
   -6.0070    1.5749   -0.2582 O   0  0  0  0  0  0  0  0  0  0  0  0
   -4.9548   -0.3621   -0.5355 O   0  0  0  0  0  1  0  0  0  0  0  0
   -0.8159   -3.9413   -4.7082 H   0  0  0  0  0  0  0  0  0  0  0  0
   -2.3105   -4.2274   -3.7538 H   0  0  0  0  0  0  0  0  0  0  0  0
   -0.7016   -4.3718   -2.9680 H   0  0  0  0  0  0  0  0  0  0  0  0
   -1.5732    0.0712   -2.4205 H   0  0  0  0  0  0  0  0  0  0  0  0
   -2.9860   -1.1870    0.0406 H   0  0  0  0  0  0  0  0  0  0  0  0
   -3.8127    6.9803    0.1627 H   0  0  0  0  0  0  0  0  0  0  0  0
   -2.2699    8.8579    0.6958 H   0  0  0  0  0  0  0  0  0  0  0  0
   -0.1420    9.6980    1.6637 H   0  0  0  0  0  0  0  0  0  0  0  0
    1.4317    8.0663    2.6798 H   0  0  0  0  0  0  0  0  0  0  0  0
    0.8499    5.6741    2.7021 H   0  0  0  0  0  0  0  0  0  0  0  0
    0.8571    1.2843    0.6337 H   0  0  0  0  0  0  0  0  0  0  0  0
   -0.1928   -0.2685    0.2925 H   0  0  0  0  0  0  0  0  0  0  0  0
  1  2  1  0  0  0  0
  1 30  1  0  0  0  0
  1 31  1  0  0  0  0
  1 32  1  0  0  0  0
  2  3  1  0  0  0  0
  3  4  2  0  0  0  0
  3  5  1  0  0  0  0
  5  6  2  0  0  0  0
  5 33  1  0  0  0  0
  6  7  1  0  0  0  0
  6 34  1  0  0  0  0
  7 25  1  0  0  0  0
  7  8  2  0  0  0  0
  8  9  1  0  0  0  0
  8 27  1  0  0  0  0
  9 20  1  0  0  0  0
  9 10  1  0  0  0  0
 10 11  1  1  0  0  0
 10 12  1  0  0  0  0
 10 22  1  0  0  0  0
 12 13  2  0  0  0  0
 12 20  1  0  0  0  0
 13 14  1  0  0  0  0
 13 35  1  0  0  0  0
 14 19  2  0  0  0  0
 14 15  1  0  0  0  0
 15 16  2  0  0  0  0
 15 36  1  0  0  0  0
 16 17  1  0  0  0  0
 16 37  1  0  0  0  0
 17 18  2  0  0  0  0
 17 38  1  0  0  0  0
 18 19  1  0  0  0  0
 18 39  1  0  0  0  0
 20 21  2  0  0  0  0
 22 23  2  0  0  0  0
 22 24  2  0  0  0  0
 22 25  1  0  0  0  0
 25 26  2  0  0  0  0
 26 40  1  0  0  0  0
 26 41  1  0  0  0  0
 27 28  2  0  0  0  0
 27 29  1  0  0  0  0
M  END
$$$$
ZINC35757137
 OpenBabel01252620473D

 30 31  0  0  1  0  0  0  0  0999 V2000
   -0.0184    1.5028    0.0103 C   0  0  0  0  0  0  0  0  0  0  0  0
    0.0021   -0.0041    0.0020 C   0  0  0  0  0  0  0  0  0  0  0  0
    0.0058   -0.6883   -1.2014 C   0  0  0  0  0  0  0  0  0  0  0  0
    0.0210   -2.0708   -1.2138 C   0  0  0  0  0  0  0  0  0  0  0  0
    0.0352   -2.7807   -0.0285 C   0  0  0  0  0  0  0  0  0  0  0  0
    0.0381   -2.1011    1.1890 C   0  0  0  0  0  0  0  0  0  0  0  0
    0.0228   -0.6974    1.1912 C   0  0  0  0  0  0  0  0  0  0  0  0
    0.0714   -2.8033    2.4786 C   0  0  0  0  0  0  0  0  0  0  0  0
    0.3899   -2.1907    3.4754 O   0  0  0  0  0  0  0  0  0  0  0  0
   -0.2782   -4.2614    2.5969 C   0  0  2  0  0  0  0  0  0  0  0  0
   -0.0548   -4.6106    3.6050 H   0  0  0  0  0  0  0  0  0  0  0  0
    0.5597   -5.0505    1.5806 C   0  0  0  0  0  0  0  0  0  0  0  0
    0.0458   -4.5434   -0.0861 S   0  0  0  0  0  0  0  0  0  0  0  0
   -1.3085   -4.9082   -0.3145 O   0  0  0  0  0  0  0  0  0  0  0  0
    1.0554   -4.8705   -1.0311 O   0  0  0  0  0  0  0  0  0  0  0  0
   -1.7669   -4.4580    2.3035 C   0  0  0  0  0  0  0  0  0  0  0  0
    0.0215   -2.8079   -2.5282 C   0  0  0  0  0  0  0  0  0  0  0  0
    1.0042    1.8801    0.0026 H   0  0  0  0  0  0  0  0  0  0  0  0
   -0.5455    1.8639   -0.8728 H   0  0  0  0  0  0  0  0  0  0  0  0
   -0.5286    1.8543    0.9071 H   0  0  0  0  0  0  0  0  0  0  0  0
   -0.0036   -0.1411   -2.1324 H   0  0  0  0  0  0  0  0  0  0  0  0
    0.0233   -0.1601    2.1281 H   0  0  0  0  0  0  0  0  0  0  0  0
    1.6172   -4.8284    1.7236 H   0  0  0  0  0  0  0  0  0  0  0  0
    0.3862   -6.1187    1.7105 H   0  0  0  0  0  0  0  0  0  0  0  0
   -1.9865   -4.1138    1.2928 H   0  0  0  0  0  0  0  0  0  0  0  0
   -2.0177   -5.5152    2.3898 H   0  0  0  0  0  0  0  0  0  0  0  0
   -2.3569   -3.8850    3.0187 H   0  0  0  0  0  0  0  0  0  0  0  0
    1.0492   -2.9742   -2.8510 H   0  0  0  0  0  0  0  0  0  0  0  0
   -0.4811   -3.7674   -2.4069 H   0  0  0  0  0  0  0  0  0  0  0  0
   -0.5033   -2.2150   -3.2774 H   0  0  0  0  0  0  0  0  0  0  0  0
  1  2  1  0  0  0  0
  1 18  1  0  0  0  0
  1 19  1  0  0  0  0
  1 20  1  0  0  0  0
  2  7  2  0  0  0  0
  2  3  1  0  0  0  0
  3  4  2  0  0  0  0
  3 21  1  0  0  0  0
  4  5  1  0  0  0  0
  4 17  1  0  0  0  0
  5 13  1  0  0  0  0
  5  6  2  0  0  0  0
  6  7  1  0  0  0  0
  6  8  1  0  0  0  0
  7 22  1  0  0  0  0
  8  9  2  0  0  0  0
  8 10  1  0  0  0  0
 10 11  1  1  0  0  0
 10 12  1  0  0  0  0
 10 16  1  0  0  0  0
 12 13  1  0  0  0  0
 12 23  1  0  0  0  0
 12 24  1  0  0  0  0
 13 14  2  0  0  0  0
 13 15  2  0  0  0  0
 16 25  1  0  0  0  0
 16 26  1  0  0  0  0
 16 27  1  0  0  0  0
 17 28  1  0  0  0  0
 17 29  1  0  0  0  0
 17 30  1  0  0  0  0
M  END
$$$$
ZINC40099798
 OpenBabel01252620473D

 56 58  0  0  1  0  0  0  0  0999 V2000
    4.3301   -0.7504   -1.4619 C   0  0  0  0  0  0  0  0  0  0  0  0
    3.2051   -1.6800   -1.0862 C   0  0  0  0  0  0  0  0  0  0  0  0
    2.1272   -1.8374   -1.9395 C   0  0  0  0  0  0  0  0  0  0  0  0
    1.0941   -2.6864   -1.6023 C   0  0  0  0  0  0  0  0  0  0  0  0
    1.1362   -3.3893   -0.3960 C   0  0  0  0  0  0  0  0  0  0  0  0
    2.2256   -3.2274    0.4619 C   0  0  0  0  0  0  0  0  0  0  0  0
    3.2571   -2.3780    0.1099 C   0  0  0  0  0  0  0  0  0  0  0  0
    4.3152   -2.2236    0.9356 F   0  0  0  0  0  0  0  0  0  0  0  0
    0.0311   -4.3006   -0.0289 C   0  0  0  0  0  0  0  0  0  0  0  0
   -0.9496   -4.3864   -0.7437 O   0  0  0  0  0  0  0  0  0  0  0  0
    0.1173   -5.1007    1.1964 C   0  0  0  0  0  0  0  0  0  0  0  0
    0.2228   -6.4479    1.2751 C   0  0  0  0  0  0  0  0  0  0  0  0
    0.2820   -6.8479    2.6970 C   0  0  0  0  0  0  0  0  0  0  0  0
    0.3786   -7.9913    3.0962 O   0  0  0  0  0  0  0  0  0  0  0  0
    0.2136   -5.7586    3.4836 N   0  0  0  0  0  0  0  0  0  0  0  0
    0.1119   -4.5802    2.6147 C   0  0  2  0  0  0  0  0  0  0  0  0
    0.9638   -3.9192    2.7746 H   0  0  0  0  0  0  0  0  0  0  0  0
   -1.1742   -3.8453    2.8921 C   0  0  0  0  0  0  0  0  0  0  0  0
   -2.3093   -4.5531    3.2456 C   0  0  0  0  0  0  0  0  0  0  0  0
   -3.4898   -3.8868    3.5009 C   0  0  0  0  0  0  0  0  0  0  0  0
   -3.5376   -2.4948    3.4019 C   0  0  0  0  0  0  0  0  0  0  0  0
   -2.3883   -1.7868    3.0446 C   0  0  0  0  0  0  0  0  0  0  0  0
   -1.2130   -2.4654    2.7976 C   0  0  0  0  0  0  0  0  0  0  0  0
   -4.7984   -1.7745    3.6733 C   0  0  0  0  0  0  0  0  0  0  0  0
   -5.7967   -2.3931    3.9835 O   0  0  0  0  0  0  0  0  0  0  0  0
   -4.8411   -0.4315    3.5768 O   0  0  0  0  0  0  0  0  0  0  0  0
   -6.0932    0.1993    3.8532 C   0  0  0  0  0  0  0  0  0  0  0  0
    0.2420   -5.7498    4.9483 C   0  0  0  0  0  0  0  0  0  0  0  0
    1.6898   -5.6351    5.4296 C   0  0  0  0  0  0  0  0  0  0  0  0
    2.2247   -4.3706    5.0335 O   0  0  0  0  0  0  0  0  0  0  0  0
    3.5798   -4.1609    5.4358 C   0  0  0  0  0  0  0  0  0  0  0  0
    4.0454   -2.7830    4.9609 C   0  0  0  0  0  0  0  0  0  0  0  0
    3.2915   -1.7692    5.6286 O   0  0  0  0  0  0  0  0  0  0  0  0
    0.2665   -7.2938    0.2203 O   0  5  0  0  0  0  0  0  0  0  0  0
    5.0834   -1.3008   -2.0255 H   0  0  0  0  0  0  0  0  0  0  0  0
    3.9404    0.0628   -2.0743 H   0  0  0  0  0  0  0  0  0  0  0  0
    4.7802   -0.3406   -0.5577 H   0  0  0  0  0  0  0  0  0  0  0  0
    2.0948   -1.2935   -2.8721 H   0  0  0  0  0  0  0  0  0  0  0  0
    0.2537   -2.8074   -2.2697 H   0  0  0  0  0  0  0  0  0  0  0  0
    2.2639   -3.7677    1.3963 H   0  0  0  0  0  0  0  0  0  0  0  0
   -2.2711   -5.6298    3.3215 H   0  0  0  0  0  0  0  0  0  0  0  0
   -4.3752   -4.4405    3.7764 H   0  0  0  0  0  0  0  0  0  0  0  0
   -2.4185   -0.7101    2.9659 H   0  0  0  0  0  0  0  0  0  0  0  0
   -0.3222   -1.9187    2.5255 H   0  0  0  0  0  0  0  0  0  0  0  0
   -6.3986   -0.0308    4.8739 H   0  0  0  0  0  0  0  0  0  0  0  0
   -5.9893    1.2784    3.7396 H   0  0  0  0  0  0  0  0  0  0  0  0
   -6.8468   -0.1684    3.1568 H   0  0  0  0  0  0  0  0  0  0  0  0
   -0.3321   -4.9001    5.3177 H   0  0  0  0  0  0  0  0  0  0  0  0
   -0.1941   -6.6747    5.3257 H   0  0  0  0  0  0  0  0  0  0  0  0
    1.7192   -5.7178    6.5160 H   0  0  0  0  0  0  0  0  0  0  0  0
    2.2839   -6.4353    4.9881 H   0  0  0  0  0  0  0  0  0  0  0  0
    3.6483   -4.2130    6.5224 H   0  0  0  0  0  0  0  0  0  0  0  0
    4.2131   -4.9305    4.9945 H   0  0  0  0  0  0  0  0  0  0  0  0
    5.1039   -2.6585    5.1894 H   0  0  0  0  0  0  0  0  0  0  0  0
    3.8936   -2.6992    3.8848 H   0  0  0  0  0  0  0  0  0  0  0  0
    3.5340   -0.8679    5.3756 H   0  0  0  0  0  0  0  0  0  0  0  0
  1  2  1  0  0  0  0
  1 35  1  0  0  0  0
  1 36  1  0  0  0  0
  1 37  1  0  0  0  0
  2  7  2  0  0  0  0
  2  3  1  0  0  0  0
  3  4  2  0  0  0  0
  3 38  1  0  0  0  0
  4  5  1  0  0  0  0
  4 39  1  0  0  0  0
  5  6  2  0  0  0  0
  5  9  1  0  0  0  0
  6  7  1  0  0  0  0
  6 40  1  0  0  0  0
  7  8  1  0  0  0  0
  9 10  2  0  0  0  0
  9 11  1  0  0  0  0
 11 16  1  0  0  0  0
 11 12  2  0  0  0  0
 12 13  1  0  0  0  0
 12 34  1  0  0  0  0
 13 14  2  0  0  0  0
 13 15  1  0  0  0  0
 15 16  1  0  0  0  0
 15 28  1  0  0  0  0
 16 17  1  1  0  0  0
 16 18  1  0  0  0  0
 18 23  2  0  0  0  0
 18 19  1  0  0  0  0
 19 20  2  0  0  0  0
 19 41  1  0  0  0  0
 20 21  1  0  0  0  0
 20 42  1  0  0  0  0
 21 22  2  0  0  0  0
 21 24  1  0  0  0  0
 22 23  1  0  0  0  0
 22 43  1  0  0  0  0
 23 44  1  0  0  0  0
 24 25  2  0  0  0  0
 24 26  1  0  0  0  0
 26 27  1  0  0  0  0
 27 45  1  0  0  0  0
 27 46  1  0  0  0  0
 27 47  1  0  0  0  0
 28 29  1  0  0  0  0
 28 48  1  0  0  0  0
 28 49  1  0  0  0  0
 29 30  1  0  0  0  0
 29 50  1  0  0  0  0
 29 51  1  0  0  0  0
 30 31  1  0  0  0  0
 31 32  1  0  0  0  0
 31 52  1  0  0  0  0
 31 53  1  0  0  0  0
 32 33  1  0  0  0  0
 32 54  1  0  0  0  0
 32 55  1  0  0  0  0
 33 56  1  0  0  0  0
M  CHG  1  34  -1
M  END
$$$$
ZINC33537172
 OpenBabel01252620473D

 46 48  0  0  1  0  0  0  0  0999 V2000
   -7.1439    4.5011   -3.8626 C   0  0  0  0  0  0  0  0  0  0  0  0
   -7.3132    3.2888   -2.9446 C   0  0  0  0  0  0  0  0  0  0  0  0
   -6.6941    3.5929   -1.5789 C   0  0  1  0  0  0  0  0  0  0  0  0
   -5.6461    3.8998   -1.7115 H   0  0  0  0  0  0  0  0  0  0  0  0
   -7.4750    4.7230   -0.9051 C   0  0  0  0  0  0  0  0  0  0  0  0
   -6.7517    2.3401   -0.7025 C   0  0  2  0  0  0  0  0  0  0  0  0
   -6.2520    2.6554    0.7058 C   0  0  2  0  0  0  0  0  0  0  0  0
   -5.6789    3.5925    0.6474 H   0  0  0  0  0  0  0  0  0  0  0  0
   -5.7694    1.1973    1.0866 C   0  0  1  0  0  0  0  0  0  0  0  0
   -6.1627    0.1749    1.1862 H   0  0  0  0  0  0  0  0  0  0  0  0
   -4.9433    0.8517   -0.0869 C   0  0  1  0  0  0  0  0  0  0  0  0
   -4.6686   -0.2130   -0.1190 H   0  0  0  0  0  0  0  0  0  0  0  0
   -5.8178    1.2981   -1.2261 N   0  0  0  0  0  0  0  0  0  0  0  0
   -3.6440    1.6151   -0.0743 C   0  0  0  0  0  0  0  0  0  0  0  0
   -2.4916    0.9634   -0.1426 C   0  0  0  0  0  0  0  0  0  0  0  0
   -1.2173    1.7122   -0.1303 C   0  0  0  0  0  0  0  0  0  0  0  0
   -0.0026    1.0292   -0.2021 C   0  0  0  0  0  0  0  0  0  0  0  0
    1.1833    1.7344   -0.1958 C   0  0  0  0  0  0  0  0  0  0  0  0
    1.1699    3.1153   -0.1138 C   0  0  0  0  0  0  0  0  0  0  0  0
   -0.0308    3.7981   -0.0375 C   0  0  0  0  0  0  0  0  0  0  0  0
   -1.2237    3.1047   -0.0419 C   0  0  0  0  0  0  0  0  0  0  0  0
   -5.6399    1.3143    2.5211 C   0  0  0  0  0  0  0  0  0  0  0  0
   -4.8097    0.7938    3.2348 O   0  0  0  0  0  0  0  0  0  0  0  0
   -6.6665    2.1452    2.8963 N   0  0  0  0  0  0  0  0  0  0  0  0
   -7.2361    2.7916    1.8354 C   0  0  0  0  0  0  0  0  0  0  0  0
   -8.3089    3.3557    1.8098 O   0  0  0  0  0  0  0  0  0  0  0  0
   -8.1584    1.8021   -0.6497 C   0  0  0  0  0  0  0  0  0  0  0  0
   -9.0972    2.5525   -0.7738 O   0  0  0  0  0  0  0  0  0  0  0  0
   -8.3684    0.4893   -0.4649 O   0  0  0  0  0  1  0  0  0  0  0  0
   -7.5890    4.2825   -4.8445 H   0  0  0  0  0  0  0  0  0  0  0  0
   -6.0732    4.7208   -3.9861 H   0  0  0  0  0  0  0  0  0  0  0  0
   -7.6478    5.3715   -3.4172 H   0  0  0  0  0  0  0  0  0  0  0  0
   -8.3839    3.0691   -2.8211 H   0  0  0  0  0  0  0  0  0  0  0  0
   -6.8093    2.4183   -3.3900 H   0  0  0  0  0  0  0  0  0  0  0  0
   -7.0298    4.9416    0.0768 H   0  0  0  0  0  0  0  0  0  0  0  0
   -8.5230    4.4162   -0.7725 H   0  0  0  0  0  0  0  0  0  0  0  0
   -7.4336    5.6237   -1.5352 H   0  0  0  0  0  0  0  0  0  0  0  0
   -3.6519    2.7131   -0.0084 H   0  0  0  0  0  0  0  0  0  0  0  0
   -2.4837   -0.1346   -0.2084 H   0  0  0  0  0  0  0  0  0  0  0  0
    0.0091   -0.0488   -0.2669 H   0  0  0  0  0  0  0  0  0  0  0  0
    2.1240    1.2072   -0.2555 H   0  0  0  0  0  0  0  0  0  0  0  0
    2.1009    3.6627   -0.1096 H   0  0  0  0  0  0  0  0  0  0  0  0
   -0.0345    4.8763    0.0260 H   0  0  0  0  0  0  0  0  0  0  0  0
   -2.1604    3.6389    0.0176 H   0  0  0  0  0  0  0  0  0  0  0  0
   -6.3978    0.4494   -1.6178 H   0  0  0  0  0  0  0  0  0  0  0  0
   -6.9452    2.2307    3.9570 H   0  0  0  0  0  0  0  0  0  0  0  0
  1  2  1  0  0  0  0
  1 30  1  0  0  0  0
  1 31  1  0  0  0  0
  1 32  1  0  0  0  0
  2  3  1  0  0  0  0
  2 33  1  0  0  0  0
  2 34  1  0  0  0  0
  3  4  1  6  0  0  0
  3  5  1  0  0  0  0
  3  6  1  0  0  0  0
  5 35  1  0  0  0  0
  5 36  1  0  0  0  0
  5 37  1  0  0  0  0
  6 13  1  0  0  0  0
  6  7  1  0  0  0  0
  6 27  1  1  0  0  0
  7  8  1  1  0  0  0
  7 25  1  0  0  0  0
  7  9  1  0  0  0  0
  9 10  1  6  0  0  0
  9 11  1  0  0  0  0
  9 22  1  0  0  0  0
 11 12  1  6  0  0  0
 11 13  1  0  0  0  0
 11 14  1  0  0  0  0
 13 45  1  0  0  0  0
 14 15  2  0  0  0  0
 14 38  1  0  0  0  0
 15 16  1  0  0  0  0
 15 39  1  0  0  0  0
 16 21  2  0  0  0  0
 16 17  1  0  0  0  0
 17 18  2  0  0  0  0
 17 40  1  0  0  0  0
 18 19  1  0  0  0  0
 18 41  1  0  0  0  0
 19 20  2  0  0  0  0
 19 42  1  0  0  0  0
 20 21  1  0  0  0  0
 20 43  1  0  0  0  0
 21 44  1  0  0  0  0
 22 23  2  0  0  0  0
 22 24  1  0  0  0  0
 24 25  1  0  0  0  0
 24 46  1  0  0  0  0
 25 26  2  0  0  0  0
 27 28  2  0  0  0  0
 27 29  1  0  0  0  0
M  END
$$$$
ZINC35693150
 OpenBabel01252620473D

 68 71  0  0  1  0  0  0  0  0999 V2000
   -0.1574    0.0777    1.2837 C   0  0  0  0  0  0  0  0  0  0  0  0
    0.0030   -1.2197    0.5339 C   0  0  0  0  0  0  0  0  0  0  0  0
   -1.0972   -2.0265    0.3155 C   0  0  0  0  0  0  0  0  0  0  0  0
   -0.8852   -3.3180   -0.4423 C   0  0  1  0  0  0  0  0  0  0  0  0
   -1.5290   -3.3007   -1.3217 H   0  0  0  0  0  0  0  0  0  0  0  0
    0.4995   -3.6178   -0.8946 N   0  0  0  0  0  0  0  0  0  0  0  0
    0.9223   -4.7289   -1.5968 C   0  0  0  0  0  0  0  0  0  0  0  0
    2.2336   -4.8092   -1.9129 C   0  0  0  0  0  0  0  0  0  0  0  0
    2.8747   -3.3018   -1.2119 S   0  0  0  0  0  0  0  0  0  0  0  0
    1.4484   -2.6868   -0.5762 C   0  0  0  0  0  0  0  0  0  0  0  0
    1.1953   -1.5757    0.0845 N   0  0  0  0  0  0  0  0  0  0  0  0
   -0.0207   -5.7871   -1.9862 C   0  0  0  0  0  0  0  0  0  0  0  0
    0.4364   -6.9239   -2.5457 C   0  0  0  0  0  0  0  0  0  0  0  0
    1.7703   -7.1477   -2.6325 O   0  5  0  0  0  0  0  0  0  0  0  0
   -0.4565   -7.8638   -3.0321 N   0  0  0  0  0  0  0  0  0  0  0  0
   -1.7708   -7.4519   -3.5446 C   0  0  0  0  0  0  0  0  0  0  0  0
   -1.9267   -7.9813   -4.9756 C   0  0  0  0  0  0  0  0  0  0  0  0
   -1.5768   -9.4086   -4.9890 N   0  0  0  0  0  0  0  0  0  0  0  0
   -0.2624   -9.8205   -4.4765 C   0  0  0  0  0  0  0  0  0  0  0  0
   -0.1044   -9.2906   -3.0506 C   0  0  0  0  0  0  0  0  0  0  0  0
   -2.4459  -10.3235   -5.4624 C   0  0  0  0  0  0  0  0  0  0  0  0
   -3.4868   -9.9648   -5.9711 O   0  0  0  0  0  0  0  0  0  0  0  0
   -2.1242  -11.7922   -5.3597 C   0  0  0  0  0  0  0  0  0  0  0  0
   -1.3407   -4.4529    0.4384 C   0  0  0  0  0  0  0  0  0  0  0  0
   -0.5915   -4.8124    1.5435 C   0  0  0  0  0  0  0  0  0  0  0  0
   -1.0066   -5.8526    2.3522 C   0  0  0  0  0  0  0  0  0  0  0  0
   -2.1765   -6.5364    2.0550 C   0  0  0  0  0  0  0  0  0  0  0  0
   -2.9267   -6.1735    0.9458 C   0  0  0  0  0  0  0  0  0  0  0  0
   -2.5100   -5.1291    0.1432 C   0  0  0  0  0  0  0  0  0  0  0  0
   -2.5868   -7.5604    2.8487 O   0  0  0  0  0  0  0  0  0  0  0  0
   -3.7376   -8.2918    2.4211 C   0  0  0  0  0  0  0  0  0  0  0  0
   -2.3662   -1.6608    0.7807 C   0  0  0  0  0  0  0  0  0  0  0  0
   -2.5140   -0.6155    1.3897 O   0  0  0  0  0  0  0  0  0  0  0  0
   -3.4270   -2.4670    0.5546 O   0  0  0  0  0  0  0  0  0  0  0  0
   -4.6916   -2.0315    1.0576 C   0  0  0  0  0  0  0  0  0  0  0  0
   -5.7633   -3.0657    0.7074 C   0  0  0  0  0  0  0  0  0  0  0  0
   -5.4857   -4.2895    1.3911 O   0  0  0  0  0  0  0  0  0  0  0  0
   -6.4323   -5.3280    1.1315 C   0  0  0  0  0  0  0  0  0  0  0  0
    0.8084    0.5780    1.3548 H   0  0  0  0  0  0  0  0  0  0  0  0
   -0.8609    0.7194    0.7532 H   0  0  0  0  0  0  0  0  0  0  0  0
   -0.5357   -0.1260    2.2854 H   0  0  0  0  0  0  0  0  0  0  0  0
    2.7573   -5.5858   -2.4504 H   0  0  0  0  0  0  0  0  0  0  0  0
   -1.0799   -5.6532   -1.8238 H   0  0  0  0  0  0  0  0  0  0  0  0
   -2.5563   -7.8674   -2.9133 H   0  0  0  0  0  0  0  0  0  0  0  0
   -1.8377   -6.3640   -3.5477 H   0  0  0  0  0  0  0  0  0  0  0  0
   -2.9589   -7.8546   -5.3021 H   0  0  0  0  0  0  0  0  0  0  0  0
   -1.2597   -7.4349   -5.6424 H   0  0  0  0  0  0  0  0  0  0  0  0
   -0.1956  -10.9085   -4.4734 H   0  0  0  0  0  0  0  0  0  0  0  0
    0.5230   -9.4050   -5.1078 H   0  0  0  0  0  0  0  0  0  0  0  0
    0.9290   -9.4166   -2.7276 H   0  0  0  0  0  0  0  0  0  0  0  0
   -0.7684   -9.8400   -2.3834 H   0  0  0  0  0  0  0  0  0  0  0  0
   -1.2005  -11.9233   -4.7962 H   0  0  0  0  0  0  0  0  0  0  0  0
   -2.9377  -12.3074   -4.8489 H   0  0  0  0  0  0  0  0  0  0  0  0
   -2.0019  -12.2082   -6.3598 H   0  0  0  0  0  0  0  0  0  0  0  0
    0.3192   -4.2797    1.7745 H   0  0  0  0  0  0  0  0  0  0  0  0
   -0.4208   -6.1335    3.2149 H   0  0  0  0  0  0  0  0  0  0  0  0
   -3.8378   -6.7043    0.7123 H   0  0  0  0  0  0  0  0  0  0  0  0
   -3.0959   -4.8433   -0.7179 H   0  0  0  0  0  0  0  0  0  0  0  0
   -4.5747   -7.6066    2.2875 H   0  0  0  0  0  0  0  0  0  0  0  0
   -3.5211   -8.7896    1.4758 H   0  0  0  0  0  0  0  0  0  0  0  0
   -3.9946   -9.0372    3.1737 H   0  0  0  0  0  0  0  0  0  0  0  0
   -4.6335   -1.9208    2.1404 H   0  0  0  0  0  0  0  0  0  0  0  0
   -4.9510   -1.0730    0.6078 H   0  0  0  0  0  0  0  0  0  0  0  0
   -6.7413   -2.6931    1.0122 H   0  0  0  0  0  0  0  0  0  0  0  0
   -5.7607   -3.2418   -0.3683 H   0  0  0  0  0  0  0  0  0  0  0  0
   -7.4241   -5.0023    1.4450 H   0  0  0  0  0  0  0  0  0  0  0  0
   -6.4435   -5.5510    0.0646 H   0  0  0  0  0  0  0  0  0  0  0  0
   -6.1513   -6.2229    1.6867 H   0  0  0  0  0  0  0  0  0  0  0  0
  1  2  1  0  0  0  0
  1 39  1  0  0  0  0
  1 40  1  0  0  0  0
  1 41  1  0  0  0  0
  2 11  1  0  0  0  0
  2  3  2  0  0  0  0
  3  4  1  0  0  0  0
  3 32  1  0  0  0  0
  4  5  1  6  0  0  0
  4  6  1  0  0  0  0
  4 24  1  0  0  0  0
  6 10  1  0  0  0  0
  6  7  1  0  0  0  0
  7  8  2  0  0  0  0
  7 12  1  0  0  0  0
  8  9  1  0  0  0  0
  8 42  1  0  0  0  0
  9 10  1  0  0  0  0
 10 11  2  0  0  0  0
 12 13  2  0  0  0  0
 12 43  1  0  0  0  0
 13 14  1  0  0  0  0
 13 15  1  0  0  0  0
 15 20  1  0  0  0  0
 15 16  1  0  0  0  0
 16 17  1  0  0  0  0
 16 44  1  0  0  0  0
 16 45  1  0  0  0  0
 17 18  1  0  0  0  0
 17 46  1  0  0  0  0
 17 47  1  0  0  0  0
 18 19  1  0  0  0  0
 18 21  1  0  0  0  0
 19 20  1  0  0  0  0
 19 48  1  0  0  0  0
 19 49  1  0  0  0  0
 20 50  1  0  0  0  0
 20 51  1  0  0  0  0
 21 22  2  0  0  0  0
 21 23  1  0  0  0  0
 23 52  1  0  0  0  0
 23 53  1  0  0  0  0
 23 54  1  0  0  0  0
 24 29  2  0  0  0  0
 24 25  1  0  0  0  0
 25 26  2  0  0  0  0
 25 55  1  0  0  0  0
 26 27  1  0  0  0  0
 26 56  1  0  0  0  0
 27 28  2  0  0  0  0
 27 30  1  0  0  0  0
 28 29  1  0  0  0  0
 28 57  1  0  0  0  0
 29 58  1  0  0  0  0
 30 31  1  0  0  0  0
 31 59  1  0  0  0  0
 31 60  1  0  0  0  0
 31 61  1  0  0  0  0
 32 33  2  0  0  0  0
 32 34  1  0  0  0  0
 34 35  1  0  0  0  0
 35 36  1  0  0  0  0
 35 62  1  0  0  0  0
 35 63  1  0  0  0  0
 36 37  1  0  0  0  0
 36 64  1  0  0  0  0
 36 65  1  0  0  0  0
 37 38  1  0  0  0  0
 38 66  1  0  0  0  0
 38 67  1  0  0  0  0
 38 68  1  0  0  0  0
M  CHG  1  14  -1
M  END
$$$$
ZINC66200585
 OpenBabel01252620473D

 54 56  0  0  0  0  0  0  0  0999 V2000
   -0.7461    0.0459   -4.6968 C   0  0  0  0  0  0  0  0  0  0  0  0
   -0.5987   -1.1427   -3.9173 O   0  0  0  0  0  0  0  0  0  0  0  0
   -1.6542   -1.5093   -3.1475 C   0  0  0  0  0  0  0  0  0  0  0  0
   -2.8117   -0.7469   -3.1439 C   0  0  0  0  0  0  0  0  0  0  0  0
   -3.8854   -1.1208   -2.3595 C   0  0  0  0  0  0  0  0  0  0  0  0
   -3.8164   -2.2583   -1.5711 C   0  0  0  0  0  0  0  0  0  0  0  0
   -2.6751   -3.0295   -1.5612 C   0  0  0  0  0  0  0  0  0  0  0  0
   -1.5812   -2.6660   -2.3549 C   0  0  0  0  0  0  0  0  0  0  0  0
   -0.3626   -3.4864   -2.3547 C   0  0  0  0  0  0  0  0  0  0  0  0
   -0.2971   -4.5984   -1.5906 C   0  0  0  0  0  0  0  0  0  0  0  0
    0.9150   -5.4144   -1.5903 C   0  0  0  0  0  0  0  0  0  0  0  0
    1.8656   -5.0922   -2.2786 O   0  0  0  0  0  0  0  0  0  0  0  0
    0.9803   -6.5239   -0.8279 N   0  0  0  0  0  0  0  0  0  0  0  0
    2.0984   -7.2765   -0.8277 C   0  0  0  0  0  0  0  0  0  0  0  0
    3.4356   -6.8233   -1.7959 S   0  0  0  0  0  0  0  0  0  0  0  0
    2.1637   -8.3860   -0.0653 N   0  0  0  0  0  0  0  0  0  0  0  0
    3.2883   -9.2151   -0.1318 C   0  0  0  0  0  0  0  0  0  0  0  0
    4.5624   -8.6627   -0.1101 C   0  0  0  0  0  0  0  0  0  0  0  0
    5.6707   -9.4842   -0.1755 C   0  0  0  0  0  0  0  0  0  0  0  0
    5.5129  -10.8552   -0.2624 C   0  0  0  0  0  0  0  0  0  0  0  0
    4.2457  -11.4083   -0.2847 C   0  0  0  0  0  0  0  0  0  0  0  0
    3.1333  -10.5929   -0.2139 C   0  0  0  0  0  0  0  0  0  0  0  0
    6.9295  -11.8997   -0.3456 S   0  0  0  0  0  0  0  0  0  0  0  0
    6.5096  -13.1046   -0.9709 O   0  0  0  0  0  0  0  0  0  0  0  0
    7.9904  -11.1051   -0.8579 O   0  0  0  0  0  0  0  0  0  0  0  0
    7.3406  -12.2920    1.2098 N   0  0  0  0  0  2  0  0  0  0  0  0
    8.4351  -13.1164    1.4535 C   0  0  0  0  0  0  0  0  0  0  0  0
    8.7816  -13.4544    2.7672 C   0  0  0  0  0  0  0  0  0  0  0  0
    9.8230  -14.2382    2.9904 N   0  0  0  0  0  0  0  0  0  0  0  0
   10.5344  -14.7006    1.9734 C   0  0  0  0  0  0  0  0  0  0  0  0
   10.1941  -14.3678    0.6790 C   0  0  0  0  0  0  0  0  0  0  0  0
    9.1497  -13.5885    0.4434 N   0  0  0  0  0  0  0  0  0  0  0  0
    8.0514  -12.9790    3.8082 O   0  0  0  0  0  0  0  0  0  0  0  0
    8.4640  -13.3659    5.1204 C   0  0  0  0  0  0  0  0  0  0  0  0
    0.1676    0.2242   -5.2637 H   0  0  0  0  0  0  0  0  0  0  0  0
   -1.5833   -0.0723   -5.3847 H   0  0  0  0  0  0  0  0  0  0  0  0
   -0.9351    0.8923   -4.0365 H   0  0  0  0  0  0  0  0  0  0  0  0
   -2.8741    0.1412   -3.7553 H   0  0  0  0  0  0  0  0  0  0  0  0
   -4.7844   -0.5224   -2.3603 H   0  0  0  0  0  0  0  0  0  0  0  0
   -4.6616   -2.5415   -0.9612 H   0  0  0  0  0  0  0  0  0  0  0  0
   -2.6258   -3.9150   -0.9449 H   0  0  0  0  0  0  0  0  0  0  0  0
    0.4810   -3.2005   -2.9655 H   0  0  0  0  0  0  0  0  0  0  0  0
   -1.1407   -4.8844   -0.9798 H   0  0  0  0  0  0  0  0  0  0  0  0
    0.2227   -6.7807   -0.2794 H   0  0  0  0  0  0  0  0  0  0  0  0
    1.4308   -8.6096    0.5295 H   0  0  0  0  0  0  0  0  0  0  0  0
    4.6863   -7.5920   -0.0426 H   0  0  0  0  0  0  0  0  0  0  0  0
    6.6617   -9.0552   -0.1590 H   0  0  0  0  0  0  0  0  0  0  0  0
    4.1258  -12.4795   -0.3530 H   0  0  0  0  0  0  0  0  0  0  0  0
    2.1439  -11.0258   -0.2264 H   0  0  0  0  0  0  0  0  0  0  0  0
   11.3844  -15.3405    2.1584 H   0  0  0  0  0  0  0  0  0  0  0  0
   10.7787  -14.7480   -0.1457 H   0  0  0  0  0  0  0  0  0  0  0  0
    8.4261  -14.4517    5.2079 H   0  0  0  0  0  0  0  0  0  0  0  0
    9.4834  -13.0225    5.2968 H   0  0  0  0  0  0  0  0  0  0  0  0
    7.7973  -12.9185    5.8576 H   0  0  0  0  0  0  0  0  0  0  0  0
  1  2  1  0  0  0  0
  1 35  1  0  0  0  0
  1 36  1  0  0  0  0
  1 37  1  0  0  0  0
  2  3  1  0  0  0  0
  3  8  2  0  0  0  0
  3  4  1  0  0  0  0
  4  5  2  0  0  0  0
  4 38  1  0  0  0  0
  5  6  1  0  0  0  0
  5 39  1  0  0  0  0
  6  7  2  0  0  0  0
  6 40  1  0  0  0  0
  7  8  1  0  0  0  0
  7 41  1  0  0  0  0
  8  9  1  0  0  0  0
  9 10  2  0  0  0  0
  9 42  1  0  0  0  0
 10 11  1  0  0  0  0
 10 43  1  0  0  0  0
 11 12  2  0  0  0  0
 11 13  1  0  0  0  0
 13 14  1  0  0  0  0
 13 44  1  0  0  0  0
 14 15  2  0  0  0  0
 14 16  1  0  0  0  0
 16 17  1  0  0  0  0
 16 45  1  0  0  0  0
 17 22  2  0  0  0  0
 17 18  1  0  0  0  0
 18 19  2  0  0  0  0
 18 46  1  0  0  0  0
 19 20  1  0  0  0  0
 19 47  1  0  0  0  0
 20 21  2  0  0  0  0
 20 23  1  0  0  0  0
 21 22  1  0  0  0  0
 21 48  1  0  0  0  0
 22 49  1  0  0  0  0
 23 24  2  0  0  0  0
 23 25  2  0  0  0  0
 23 26  1  0  0  0  0
 26 27  1  0  0  0  0
 27 32  2  0  0  0  0
 27 28  1  0  0  0  0
 28 29  2  0  0  0  0
 28 33  1  0  0  0  0
 29 30  1  0  0  0  0
 30 31  2  0  0  0  0
 30 50  1  0  0  0  0
 31 32  1  0  0  0  0
 31 51  1  0  0  0  0
 33 34  1  0  0  0  0
 34 52  1  0  0  0  0
 34 53  1  0  0  0  0
 34 54  1  0  0  0  0
M  END
$$$$
ZINC23138256
 OpenBabel01252620473D

 37 39  0  0  0  0  0  0  0  0999 V2000
    1.1931    1.7880    0.0040 C   0  0  0  0  0  0  0  0  0  0  0  0
    1.1691    3.1704    0.0118 C   0  0  0  0  0  0  0  0  0  0  0  0
   -0.0393    3.8412    0.0227 C   0  0  0  0  0  0  0  0  0  0  0  0
   -1.2248    3.1302    0.0260 C   0  0  0  0  0  0  0  0  0  0  0  0
   -1.2015    1.7472    0.0135 C   0  0  0  0  0  0  0  0  0  0  0  0
    0.0086    1.0761    0.0078 C   0  0  0  0  0  0  0  0  0  0  0  0
   -2.6899    0.8535    0.0103 Cl  0  0  0  0  0  0  0  0  0  0  0  0
   -0.0646    5.3480    0.0306 C   0  0  0  0  0  0  0  0  0  0  0  0
   -0.0854    5.9599   -1.6727 S   0  0  0  0  0  0  0  0  0  0  0  0
   -0.1126    7.6962   -1.3737 C   0  0  0  0  0  0  0  0  0  0  0  0
   -0.1336    8.5569   -2.4288 N   0  0  0  0  0  0  0  0  0  0  0  0
   -0.1492    9.8887   -2.2070 C   0  0  0  0  0  0  0  0  0  0  0  0
   -0.1684   10.6742   -3.1404 O   0  5  0  0  0  0  0  0  0  0  0  0
   -0.1433   10.3530   -0.8800 C   0  0  0  0  0  0  0  0  0  0  0  0
   -0.1220    9.4433    0.1376 C   0  0  0  0  0  0  0  0  0  0  0  0
   -0.1123    8.1404   -0.1315 N   0  0  0  0  0  0  0  0  0  0  0  0
   -0.1095    9.9159    1.5685 C   0  0  0  0  0  0  0  0  0  0  0  0
   -1.5189    9.9417    2.1014 C   0  0  0  0  0  0  0  0  0  0  0  0
   -2.4426    9.6092    1.3893 O   0  0  0  0  0  0  0  0  0  0  0  0
   -1.7528   10.3344    3.3693 N   0  0  0  0  0  0  0  0  0  0  0  0
   -3.0529   10.3584    3.8608 C   0  0  0  0  0  0  0  0  0  0  0  0
   -4.1767   10.0432    3.2469 N   0  0  0  0  0  0  0  0  0  0  0  0
   -5.3381   10.1179    3.8669 C   0  0  0  0  0  0  0  0  0  0  0  0
   -5.3567   10.5400    5.1549 C   0  0  0  0  0  0  0  0  0  0  0  0
   -3.6145   10.8182    5.4383 S   0  0  0  0  0  0  0  0  0  0  0  0
    2.1376    1.2644   -0.0053 H   0  0  0  0  0  0  0  0  0  0  0  0
    2.0951    3.7264    0.0088 H   0  0  0  0  0  0  0  0  0  0  0  0
   -2.1691    3.6544    0.0346 H   0  0  0  0  0  0  0  0  0  0  0  0
    0.0275   -0.0037    0.0018 H   0  0  0  0  0  0  0  0  0  0  0  0
   -0.9655    5.6968    0.5566 H   0  0  0  0  0  0  0  0  0  0  0  0
    0.8305    5.7270    0.5455 H   0  0  0  0  0  0  0  0  0  0  0  0
   -0.1544   11.3318   -0.6755 H   0  0  0  0  0  0  0  0  0  0  0  0
    0.3194   10.9277    1.6168 H   0  0  0  0  0  0  0  0  0  0  0  0
    0.4997    9.2302    2.1758 H   0  0  0  0  0  0  0  0  0  0  0  0
   -0.9149   10.6359    4.0152 H   0  0  0  0  0  0  0  0  0  0  0  0
   -6.2536    9.8534    3.3588 H   0  0  0  0  0  0  0  0  0  0  0  0
   -6.1936   10.6721    5.8247 H   0  0  0  0  0  0  0  0  0  0  0  0
  1  6  2  0  0  0  0
  1  2  1  0  0  0  0
  1 26  1  0  0  0  0
  2  3  2  0  0  0  0
  2 27  1  0  0  0  0
  3  4  1  0  0  0  0
  3  8  1  0  0  0  0
  4  5  2  0  0  0  0
  4 28  1  0  0  0  0
  5  6  1  0  0  0  0
  5  7  1  0  0  0  0
  6 29  1  0  0  0  0
  8 30  1  0  0  0  0
  8 31  1  0  0  0  0
  8  9  1  0  0  0  0
  9 10  1  0  0  0  0
 10 16  2  0  0  0  0
 10 11  1  0  0  0  0
 11 12  2  0  0  0  0
 12 13  1  0  0  0  0
 12 14  1  0  0  0  0
 14 32  1  0  0  0  0
 14 15  2  0  0  0  0
 15 16  1  0  0  0  0
 15 17  1  0  0  0  0
 17 18  1  0  0  0  0
 17 33  1  0  0  0  0
 17 34  1  0  0  0  0
 18 19  2  0  0  0  0
 18 20  1  0  0  0  0
 20 21  1  0  0  0  0
 20 35  1  0  0  0  0
 21 25  1  0  0  0  0
 21 22  2  0  0  0  0
 22 23  1  0  0  0  0
 23 24  2  0  0  0  0
 23 36  1  0  0  0  0
 24 25  1  0  0  0  0
 24 37  1  0  0  0  0
M  CHG  1  13  -1
M  END
$$$$
ZINC40093318
 OpenBabel01252620473D

 53 55  0  0  1  0  0  0  0  0999 V2000
    1.7689    1.7478   -1.4577 C   0  0  0  0  0  0  0  0  0  0  0  0
    1.9478    0.2559   -1.5720 C   0  0  0  0  0  0  0  0  0  0  0  0
    0.8969   -0.5329   -1.9832 C   0  0  0  0  0  0  0  0  0  0  0  0
    1.0639   -1.9169   -2.0890 C   0  0  0  0  0  0  0  0  0  0  0  0
    2.2987   -2.4942   -1.7763 C   0  0  0  0  0  0  0  0  0  0  0  0
    3.3440   -1.6984   -1.3661 C   0  0  0  0  0  0  0  0  0  0  0  0
    3.1753   -0.3215   -1.2677 C   0  0  0  0  0  0  0  0  0  0  0  0
    4.2101    0.4601   -0.8681 O   0  0  0  0  0  0  0  0  0  0  0  0
    5.4725   -0.1820   -0.6782 C   0  0  0  0  0  0  0  0  0  0  0  0
    6.5963    0.8423   -0.8472 C   0  0  0  0  0  0  0  0  0  0  0  0
    5.5342   -0.7793    0.7291 C   0  0  0  0  0  0  0  0  0  0  0  0
   -0.0602   -2.7666   -2.5289 C   0  0  0  0  0  0  0  0  0  0  0  0
   -1.1237   -2.2592   -2.8332 O   0  0  0  0  0  0  0  0  0  0  0  0
    0.1046   -4.2220   -2.5993 C   0  0  0  0  0  0  0  0  0  0  0  0
    0.0935   -4.9822   -3.7188 C   0  0  0  0  0  0  0  0  0  0  0  0
    0.2935   -6.3983   -3.3460 C   0  0  0  0  0  0  0  0  0  0  0  0
    0.3323   -7.3266   -4.1289 O   0  0  0  0  0  0  0  0  0  0  0  0
    0.4261   -6.5076   -2.0116 N   0  0  0  0  0  0  0  0  0  0  0  0
    0.3261   -5.1610   -1.4366 C   0  0  2  0  0  0  0  0  0  0  0  0
    1.2491   -4.9033   -0.9172 H   0  0  0  0  0  0  0  0  0  0  0  0
   -0.8410   -5.0925   -0.4857 C   0  0  0  0  0  0  0  0  0  0  0  0
   -1.9874   -5.8202   -0.7452 C   0  0  0  0  0  0  0  0  0  0  0  0
   -3.0579   -5.7580    0.1269 C   0  0  0  0  0  0  0  0  0  0  0  0
   -2.9819   -4.9676    1.2596 C   0  0  0  0  0  0  0  0  0  0  0  0
   -1.8346   -4.2397    1.5188 C   0  0  0  0  0  0  0  0  0  0  0  0
   -0.7627   -4.3066    0.6489 C   0  0  0  0  0  0  0  0  0  0  0  0
   -4.4464   -4.8817    2.4528 Br  0  0  0  0  0  0  0  0  0  0  0  0
    0.6385   -7.7502   -1.2653 C   0  0  0  0  0  0  0  0  0  0  0  0
    2.1395   -8.0156   -1.1331 C   0  0  0  0  0  0  0  0  0  0  0  0
    2.7363   -6.9898   -0.3371 O   0  0  0  0  0  0  0  0  0  0  0  0
   -0.0740   -4.5194   -4.9791 O   0  5  0  0  0  0  0  0  0  0  0  0
    2.0203    2.2178   -2.4085 H   0  0  0  0  0  0  0  0  0  0  0  0
    0.7325    1.9712   -1.2047 H   0  0  0  0  0  0  0  0  0  0  0  0
    2.4247    2.1336   -0.6771 H   0  0  0  0  0  0  0  0  0  0  0  0
   -0.0552   -0.0832   -2.2233 H   0  0  0  0  0  0  0  0  0  0  0  0
    2.4317   -3.5630   -1.8564 H   0  0  0  0  0  0  0  0  0  0  0  0
    4.2980   -2.1435   -1.1245 H   0  0  0  0  0  0  0  0  0  0  0  0
    5.5908   -0.9761   -1.4154 H   0  0  0  0  0  0  0  0  0  0  0  0
    6.4780    1.6364   -0.1099 H   0  0  0  0  0  0  0  0  0  0  0  0
    7.5592    0.3525   -0.7023 H   0  0  0  0  0  0  0  0  0  0  0  0
    6.5524    1.2679   -1.8497 H   0  0  0  0  0  0  0  0  0  0  0  0
    5.4159    0.0148    1.4663 H   0  0  0  0  0  0  0  0  0  0  0  0
    4.7336   -1.5091    0.8495 H   0  0  0  0  0  0  0  0  0  0  0  0
    6.4972   -1.2691    0.8740 H   0  0  0  0  0  0  0  0  0  0  0  0
   -2.0467   -6.4370   -1.6297 H   0  0  0  0  0  0  0  0  0  0  0  0
   -3.9536   -6.3262   -0.0761 H   0  0  0  0  0  0  0  0  0  0  0  0
   -1.7749   -3.6225    2.4031 H   0  0  0  0  0  0  0  0  0  0  0  0
    0.1347   -3.7415    0.8533 H   0  0  0  0  0  0  0  0  0  0  0  0
    0.1970   -7.6580   -0.2729 H   0  0  0  0  0  0  0  0  0  0  0  0
    0.1686   -8.5780   -1.7964 H   0  0  0  0  0  0  0  0  0  0  0  0
    2.2968   -8.9831   -0.6564 H   0  0  0  0  0  0  0  0  0  0  0  0
    2.5963   -8.0196   -2.1227 H   0  0  0  0  0  0  0  0  0  0  0  0
    3.6893   -7.0942   -0.2110 H   0  0  0  0  0  0  0  0  0  0  0  0
  1  2  1  0  0  0  0
  1 32  1  0  0  0  0
  1 33  1  0  0  0  0
  1 34  1  0  0  0  0
  2  7  2  0  0  0  0
  2  3  1  0  0  0  0
  3  4  2  0  0  0  0
  3 35  1  0  0  0  0
  4  5  1  0  0  0  0
  4 12  1  0  0  0  0
  5  6  2  0  0  0  0
  5 36  1  0  0  0  0
  6  7  1  0  0  0  0
  6 37  1  0  0  0  0
  7  8  1  0  0  0  0
  8  9  1  0  0  0  0
  9 10  1  0  0  0  0
  9 11  1  0  0  0  0
  9 38  1  0  0  0  0
 10 39  1  0  0  0  0
 10 40  1  0  0  0  0
 10 41  1  0  0  0  0
 11 42  1  0  0  0  0
 11 43  1  0  0  0  0
 11 44  1  0  0  0  0
 12 13  2  0  0  0  0
 12 14  1  0  0  0  0
 14 19  1  0  0  0  0
 14 15  2  0  0  0  0
 15 16  1  0  0  0  0
 15 31  1  0  0  0  0
 16 17  2  0  0  0  0
 16 18  1  0  0  0  0
 18 19  1  0  0  0  0
 18 28  1  0  0  0  0
 19 20  1  1  0  0  0
 19 21  1  0  0  0  0
 21 26  2  0  0  0  0
 21 22  1  0  0  0  0
 22 23  2  0  0  0  0
 22 45  1  0  0  0  0
 23 24  1  0  0  0  0
 23 46  1  0  0  0  0
 24 25  2  0  0  0  0
 24 27  1  0  0  0  0
 25 26  1  0  0  0  0
 25 47  1  0  0  0  0
 26 48  1  0  0  0  0
 28 29  1  0  0  0  0
 28 49  1  0  0  0  0
 28 50  1  0  0  0  0
 29 30  1  0  0  0  0
 29 51  1  0  0  0  0
 29 52  1  0  0  0  0
 30 53  1  0  0  0  0
M  CHG  1  31  -1
M  END
$$$$
ZINC22960918
 OpenBabel01252620473D

 48 50  0  0  1  0  0  0  0  0999 V2000
    0.6338    1.3404    2.1925 C   0  0  0  0  0  0  0  0  0  0  0  0
    0.5577    0.9464    0.7160 C   0  0  2  0  0  0  0  0  0  0  0  0
    0.5507   -0.1474    0.5992 H   0  0  0  0  0  0  0  0  0  0  0  0
    1.7247    1.5855   -0.0453 C   0  0  0  0  0  0  0  0  0  0  0  0
    1.5225    3.0429   -0.0663 N   0  0  0  0  0  0  0  0  0  0  0  0
    0.2140    3.5533   -0.5053 C   0  0  0  0  0  0  0  0  0  0  0  0
   -0.8794    2.8183    0.2784 C   0  0  2  0  0  0  0  0  0  0  0  0
   -0.8246    3.0425    1.3539 H   0  0  0  0  0  0  0  0  0  0  0  0
   -0.6759    1.4082    0.1605 O   0  0  0  0  0  0  0  0  0  0  0  0
   -2.2512    3.1870   -0.2900 C   0  0  0  0  0  0  0  0  0  0  0  0
    2.5064    3.8853    0.3059 C   0  0  0  0  0  0  0  0  0  0  0  0
    3.5614    3.4434    0.7188 O   0  0  0  0  0  0  0  0  0  0  0  0
    2.3037    5.3427    0.2124 C   0  0  0  0  0  0  0  0  0  0  0  0
    1.5475    5.8818   -0.8316 C   0  0  0  0  0  0  0  0  0  0  0  0
    1.3574    7.2439   -0.9103 C   0  0  0  0  0  0  0  0  0  0  0  0
    1.9219    8.0857    0.0352 C   0  0  0  0  0  0  0  0  0  0  0  0
    2.6755    7.5694    1.0690 C   0  0  0  0  0  0  0  0  0  0  0  0
    2.8740    6.1977    1.1682 C   0  0  0  0  0  0  0  0  0  0  0  0
    3.6322    5.6755    2.2079 N   0  0  0  0  0  2  0  0  0  0  0  0
    3.7405    6.4916    3.6448 S   0  0  0  0  0  0  0  0  0  0  0  0
    4.4524    5.6471    4.5388 O   0  0  0  0  0  0  0  0  0  0  0  0
    4.1741    7.8082    3.3323 O   0  0  0  0  0  0  0  0  0  0  0  0
    2.1055    6.6385    4.2850 C   0  0  0  0  0  0  0  0  0  0  0  0
    1.3345    7.7400    3.9585 C   0  0  0  0  0  0  0  0  0  0  0  0
    0.0519    7.8590    4.4523 C   0  0  0  0  0  0  0  0  0  0  0  0
   -0.4638    6.8700    5.2924 C   0  0  0  0  0  0  0  0  0  0  0  0
    0.3218    5.7637    5.6221 C   0  0  0  0  0  0  0  0  0  0  0  0
    1.6006    5.6546    5.1166 C   0  0  0  0  0  0  0  0  0  0  0  0
   -1.7920    6.9901    5.8139 C   0  0  0  0  0  0  0  0  0  0  0  0
   -2.8457    7.0853    6.2276 N   0  0  0  0  0  0  0  0  0  0  0  0
    1.5834    0.9844    2.6185 H   0  0  0  0  0  0  0  0  0  0  0  0
   -0.2062    0.8847    2.7373 H   0  0  0  0  0  0  0  0  0  0  0  0
    0.5788    2.4353    2.2831 H   0  0  0  0  0  0  0  0  0  0  0  0
    2.6700    1.3439    0.4627 H   0  0  0  0  0  0  0  0  0  0  0  0
    1.7503    1.1941   -1.0730 H   0  0  0  0  0  0  0  0  0  0  0  0
    0.1569    4.6339   -0.3078 H   0  0  0  0  0  0  0  0  0  0  0  0
    0.0920    3.3706   -1.5831 H   0  0  0  0  0  0  0  0  0  0  0  0
   -3.0352    2.6592    0.2729 H   0  0  0  0  0  0  0  0  0  0  0  0
   -2.3000    2.8941   -1.3492 H   0  0  0  0  0  0  0  0  0  0  0  0
   -2.4046    4.2727   -0.2023 H   0  0  0  0  0  0  0  0  0  0  0  0
    1.1094    5.2310   -1.5738 H   0  0  0  0  0  0  0  0  0  0  0  0
    0.7695    7.6585   -1.7158 H   0  0  0  0  0  0  0  0  0  0  0  0
    1.7704    9.1525   -0.0376 H   0  0  0  0  0  0  0  0  0  0  0  0
    3.1119    8.2320    1.8017 H   0  0  0  0  0  0  0  0  0  0  0  0
    1.7364    8.5065    3.3125 H   0  0  0  0  0  0  0  0  0  0  0  0
   -0.5503    8.7172    4.1934 H   0  0  0  0  0  0  0  0  0  0  0  0
   -0.0709    4.9953    6.2716 H   0  0  0  0  0  0  0  0  0  0  0  0
    2.2093    4.7994    5.3708 H   0  0  0  0  0  0  0  0  0  0  0  0
  1  2  1  0  0  0  0
  1 31  1  0  0  0  0
  1 32  1  0  0  0  0
  1 33  1  0  0  0  0
  2  3  1  6  0  0  0
  2  9  1  0  0  0  0
  2  4  1  0  0  0  0
  4  5  1  0  0  0  0
  4 34  1  0  0  0  0
  4 35  1  0  0  0  0
  5  6  1  0  0  0  0
  5 11  1  0  0  0  0
  6  7  1  0  0  0  0
  6 36  1  0  0  0  0
  6 37  1  0  0  0  0
  7  8  1  1  0  0  0
  7  9  1  0  0  0  0
  7 10  1  0  0  0  0
 10 38  1  0  0  0  0
 10 39  1  0  0  0  0
 10 40  1  0  0  0  0
 11 12  2  0  0  0  0
 11 13  1  0  0  0  0
 13 18  2  0  0  0  0
 13 14  1  0  0  0  0
 14 15  2  0  0  0  0
 14 41  1  0  0  0  0
 15 16  1  0  0  0  0
 15 42  1  0  0  0  0
 16 17  2  0  0  0  0
 16 43  1  0  0  0  0
 17 18  1  0  0  0  0
 17 44  1  0  0  0  0
 18 19  1  0  0  0  0
 19 20  1  0  0  0  0
 20 21  2  0  0  0  0
 20 22  2  0  0  0  0
 20 23  1  0  0  0  0
 23 28  2  0  0  0  0
 23 24  1  0  0  0  0
 24 25  2  0  0  0  0
 24 45  1  0  0  0  0
 25 26  1  0  0  0  0
 25 46  1  0  0  0  0
 26 27  2  0  0  0  0
 26 29  1  0  0  0  0
 27 28  1  0  0  0  0
 27 47  1  0  0  0  0
 28 48  1  0  0  0  0
 29 30  3  0  0  0  0
M  END
$$$$
ZINC13256018
 OpenBabel01252620473D

 61 64  0  0  0  0  0  0  0  0999 V2000
   -3.9331    7.9294   -8.2314 C   0  0  0  0  0  0  0  0  0  0  0  0
   -3.5834    7.7516   -6.9104 C   0  0  0  0  0  0  0  0  0  0  0  0
   -2.9787    6.5679   -6.5033 C   0  0  0  0  0  0  0  0  0  0  0  0
   -2.7193    5.5626   -7.4278 C   0  0  0  0  0  0  0  0  0  0  0  0
   -3.0714    5.7323   -8.7492 C   0  0  0  0  0  0  0  0  0  0  0  0
   -3.6791    6.9196   -9.1612 C   0  0  0  0  0  0  0  0  0  0  0  0
   -4.0535    7.1070  -10.5793 C   0  0  0  0  0  0  0  0  0  0  0  0
   -4.9198    7.9772  -11.0543 N   0  0  0  0  0  0  0  0  0  0  0  0
   -4.9891    7.8674  -12.3348 N   0  0  0  0  0  0  0  0  0  0  0  0
   -4.1842    6.9277  -12.7448 C   0  0  0  0  0  0  0  0  0  0  0  0
   -3.5722    6.4072  -11.6475 N   0  0  0  0  0  0  0  0  0  0  0  0
   -2.6044    5.3105  -11.6276 C   0  0  0  0  0  0  0  0  0  0  0  0
   -1.8488    5.2775  -12.9592 C   0  0  0  0  0  0  0  0  0  0  0  0
   -2.5985    4.3955  -13.9563 C   0  0  0  0  0  0  0  0  0  0  0  0
   -3.9896    4.9586  -14.2304 C   0  0  0  0  0  0  0  0  0  0  0  0
   -3.9475    6.4883  -14.1668 C   0  0  0  0  0  0  0  0  0  0  0  0
   -2.6256    6.3904   -5.1627 N   0  0  0  0  0  0  0  0  0  0  0  0
   -2.5549    5.1488   -4.6431 C   0  0  0  0  0  0  0  0  0  0  0  0
   -2.8888    4.1924   -5.3101 O   0  0  0  0  0  0  0  0  0  0  0  0
   -2.0610    4.9489   -3.2334 C   0  0  0  0  0  0  0  0  0  0  0  0
   -2.0794    3.4573   -2.8933 C   0  0  0  0  0  0  0  0  0  0  0  0
   -1.5780    3.2543   -1.4621 C   0  0  0  0  0  0  0  0  0  0  0  0
   -1.5956    1.8261   -1.1365 N   0  0  0  0  0  0  0  0  0  0  0  0
   -0.7707    1.2683    0.1867 S   0  0  0  0  0  0  0  0  0  0  0  0
   -1.0009   -0.1326    0.2479 O   0  0  0  0  0  0  0  0  0  0  0  0
    0.5355    1.8232    0.1146 O   0  0  0  0  0  0  0  0  0  0  0  0
   -1.5370    1.9673    1.6111 C   0  0  0  0  0  0  0  0  0  0  0  0
   -1.0924    3.1801    2.1069 C   0  0  0  0  0  0  0  0  0  0  0  0
   -1.6910    3.7354    3.2188 C   0  0  0  0  0  0  0  0  0  0  0  0
   -2.7407    3.0655    3.8504 C   0  0  0  0  0  0  0  0  0  0  0  0
   -3.1808    1.8393    3.3478 C   0  0  0  0  0  0  0  0  0  0  0  0
   -2.5767    1.2981    2.2320 C   0  0  0  0  0  0  0  0  0  0  0  0
   -3.3831    3.6515    5.0446 C   0  0  0  0  0  0  0  0  0  0  0  0
   -4.2964    3.0666    5.5916 O   0  0  0  0  0  0  0  0  0  0  0  0
   -4.4028    8.8492   -8.5472 H   0  0  0  0  0  0  0  0  0  0  0  0
   -3.7796    8.5325   -6.1907 H   0  0  0  0  0  0  0  0  0  0  0  0
   -2.2454    4.6459   -7.1092 H   0  0  0  0  0  0  0  0  0  0  0  0
   -2.8737    4.9492   -9.4662 H   0  0  0  0  0  0  0  0  0  0  0  0
   -1.8977    5.4637  -10.8120 H   0  0  0  0  0  0  0  0  0  0  0  0
   -3.1282    4.3656  -11.4830 H   0  0  0  0  0  0  0  0  0  0  0  0
   -0.8489    4.8741  -12.7988 H   0  0  0  0  0  0  0  0  0  0  0  0
   -1.7719    6.2895  -13.3567 H   0  0  0  0  0  0  0  0  0  0  0  0
   -2.6922    3.3897  -13.5468 H   0  0  0  0  0  0  0  0  0  0  0  0
   -2.0380    4.3520  -14.8901 H   0  0  0  0  0  0  0  0  0  0  0  0
   -4.6870    4.5833  -13.4815 H   0  0  0  0  0  0  0  0  0  0  0  0
   -4.3189    4.6456  -15.2213 H   0  0  0  0  0  0  0  0  0  0  0  0
   -4.7242    6.9015  -14.8102 H   0  0  0  0  0  0  0  0  0  0  0  0
   -2.9717    6.8417  -14.5000 H   0  0  0  0  0  0  0  0  0  0  0  0
   -2.4314    7.1608   -4.6062 H   0  0  0  0  0  0  0  0  0  0  0  0
   -2.7088    5.4873   -2.5417 H   0  0  0  0  0  0  0  0  0  0  0  0
   -1.0428    5.3285   -3.1479 H   0  0  0  0  0  0  0  0  0  0  0  0
   -1.4316    2.9188   -3.5851 H   0  0  0  0  0  0  0  0  0  0  0  0
   -3.0976    3.0777   -2.9788 H   0  0  0  0  0  0  0  0  0  0  0  0
   -2.2258    3.7927   -0.7704 H   0  0  0  0  0  0  0  0  0  0  0  0
   -0.5598    3.6339   -1.3766 H   0  0  0  0  0  0  0  0  0  0  0  0
   -2.0905    1.2071   -1.6959 H   0  0  0  0  0  0  0  0  0  0  0  0
   -0.2776    3.6953    1.6199 H   0  0  0  0  0  0  0  0  0  0  0  0
   -1.3460    4.6843    3.6022 H   0  0  0  0  0  0  0  0  0  0  0  0
   -3.9925    1.3161    3.8313 H   0  0  0  0  0  0  0  0  0  0  0  0
   -2.9164    0.3499    1.8420 H   0  0  0  0  0  0  0  0  0  0  0  0
   -2.9561    4.8346    5.5269 O   0  0  0  0  0  1  0  0  0  0  0  0
  1  6  2  0  0  0  0
  1  2  1  0  0  0  0
  1 35  1  0  0  0  0
  2  3  2  0  0  0  0
  2 36  1  0  0  0  0
  3  4  1  0  0  0  0
  3 17  1  0  0  0  0
  4  5  2  0  0  0  0
  4 37  1  0  0  0  0
  5  6  1  0  0  0  0
  5 38  1  0  0  0  0
  6  7  1  0  0  0  0
  7 11  1  0  0  0  0
  7  8  2  0  0  0  0
  8  9  1  0  0  0  0
  9 10  2  0  0  0  0
 10 16  1  0  0  0  0
 10 11  1  0  0  0  0
 11 12  1  0  0  0  0
 12 13  1  0  0  0  0
 12 39  1  0  0  0  0
 12 40  1  0  0  0  0
 13 14  1  0  0  0  0
 13 41  1  0  0  0  0
 13 42  1  0  0  0  0
 14 15  1  0  0  0  0
 14 43  1  0  0  0  0
 14 44  1  0  0  0  0
 15 16  1  0  0  0  0
 15 45  1  0  0  0  0
 15 46  1  0  0  0  0
 16 47  1  0  0  0  0
 16 48  1  0  0  0  0
 17 18  1  0  0  0  0
 17 49  1  0  0  0  0
 18 19  2  0  0  0  0
 18 20  1  0  0  0  0
 20 21  1  0  0  0  0
 20 50  1  0  0  0  0
 20 51  1  0  0  0  0
 21 22  1  0  0  0  0
 21 52  1  0  0  0  0
 21 53  1  0  0  0  0
 22 23  1  0  0  0  0
 22 54  1  0  0  0  0
 22 55  1  0  0  0  0
 23 24  1  0  0  0  0
 23 56  1  0  0  0  0
 24 25  2  0  0  0  0
 24 26  2  0  0  0  0
 24 27  1  0  0  0  0
 27 32  2  0  0  0  0
 27 28  1  0  0  0  0
 28 29  2  0  0  0  0
 28 57  1  0  0  0  0
 29 30  1  0  0  0  0
 29 58  1  0  0  0  0
 30 31  2  0  0  0  0
 30 33  1  0  0  0  0
 31 32  1  0  0  0  0
 31 59  1  0  0  0  0
 32 60  1  0  0  0  0
 33 34  2  0  0  0  0
 33 61  1  0  0  0  0
M  END
$$$$
ZINC22021524
 OpenBabel01252620473D

 38 40  0  0  0  0  0  0  0  0999 V2000
    9.1304   -1.4501   -1.3825 C   0  0  0  0  0  0  0  0  0  0  0  0
    8.6410   -0.7296   -0.2208 O   0  0  0  0  0  0  0  0  0  0  0  0
    7.3441   -0.3584   -0.2320 C   0  0  0  0  0  0  0  0  0  0  0  0
    6.6190   -0.7091   -1.1433 O   0  0  0  0  0  0  0  0  0  0  0  0
    6.8096    0.4667    0.8527 C   0  0  0  0  0  0  0  0  0  0  0  0
    5.5012    0.8643    1.0856 C   0  0  0  0  0  0  0  0  0  0  0  0
    5.2732    1.6463    2.1897 C   0  0  0  0  0  0  0  0  0  0  0  0
    6.3186    1.9885    2.9882 C   0  0  0  0  0  0  0  0  0  0  0  0
    7.6712    1.2236    2.2194 S   0  0  0  0  0  0  0  0  0  0  0  0
    4.1895    0.3856    0.0109 S   0  0  0  0  0  0  0  0  0  0  0  0
    4.2854   -1.0236   -0.1442 O   0  0  0  0  0  0  0  0  0  0  0  0
    3.0146    1.0205    0.4964 O   0  0  0  0  0  0  0  0  0  0  0  0
    4.5063    1.0477   -1.4735 N   0  0  0  0  0  2  0  0  0  0  0  0
    4.4506    2.4335   -1.6469 C   0  0  0  0  0  0  0  0  0  0  0  0
    4.7860    3.2800   -0.5997 C   0  0  0  0  0  0  0  0  0  0  0  0
    4.7365    4.6496   -0.7758 C   0  0  0  0  0  0  0  0  0  0  0  0
    4.3408    5.1810   -1.9899 C   0  0  0  0  0  0  0  0  0  0  0  0
    3.9990    4.3455   -3.0363 C   0  0  0  0  0  0  0  0  0  0  0  0
    4.0521    2.9697   -2.8710 C   0  0  0  0  0  0  0  0  0  0  0  0
    3.7064    2.1196   -3.9324 N   0  0  0  0  0  0  0  0  0  0  0  0
    3.3003    2.4880   -5.1625 C   0  0  0  0  0  0  0  0  0  0  0  0
    3.0788    1.4018   -5.8583 N   0  0  0  0  0  0  0  0  0  0  0  0
    3.3222    0.3273   -5.1091 C   0  0  0  0  0  0  0  0  0  0  0  0
    3.7092    0.7152   -3.9217 N   0  0  0  0  0  0  0  0  0  0  0  0
    5.1081    5.5671    0.3605 C   0  0  0  0  0  0  0  0  0  0  0  0
    4.8669    6.8935   -0.0131 F   0  0  0  0  0  0  0  0  0  0  0  0
    4.3381    5.2520    1.4853 F   0  0  0  0  0  0  0  0  0  0  0  0
    6.4644    5.4074    0.6643 F   0  0  0  0  0  0  0  0  0  0  0  0
   10.1949   -1.6901   -1.2435 H   0  0  0  0  0  0  0  0  0  0  0  0
    9.0096   -0.8248   -2.2794 H   0  0  0  0  0  0  0  0  0  0  0  0
    8.5575   -2.3811   -1.5047 H   0  0  0  0  0  0  0  0  0  0  0  0
    4.2746    1.9858    2.4218 H   0  0  0  0  0  0  0  0  0  0  0  0
    6.3091    2.5912    3.8843 H   0  0  0  0  0  0  0  0  0  0  0  0
    5.0908    2.8684    0.3511 H   0  0  0  0  0  0  0  0  0  0  0  0
    4.2991    6.2523   -2.1207 H   0  0  0  0  0  0  0  0  0  0  0  0
    3.6909    4.7641   -3.9830 H   0  0  0  0  0  0  0  0  0  0  0  0
    3.1808    3.5021   -5.5141 H   0  0  0  0  0  0  0  0  0  0  0  0
    3.2175   -0.6984   -5.4307 H   0  0  0  0  0  0  0  0  0  0  0  0
  1  2  1  0  0  0  0
  1 29  1  0  0  0  0
  1 30  1  0  0  0  0
  1 31  1  0  0  0  0
  2  3  1  0  0  0  0
  3  4  2  0  0  0  0
  3  5  1  0  0  0  0
  5  9  1  0  0  0  0
  5  6  2  0  0  0  0
  6  7  1  0  0  0  0
  6 10  1  0  0  0  0
  7  8  2  0  0  0  0
  7 32  1  0  0  0  0
  8  9  1  0  0  0  0
  8 33  1  0  0  0  0
 10 11  2  0  0  0  0
 10 12  2  0  0  0  0
 10 13  1  0  0  0  0
 13 14  1  0  0  0  0
 14 19  2  0  0  0  0
 14 15  1  0  0  0  0
 15 16  2  0  0  0  0
 15 34  1  0  0  0  0
 16 17  1  0  0  0  0
 16 25  1  0  0  0  0
 17 18  2  0  0  0  0
 17 35  1  0  0  0  0
 18 19  1  0  0  0  0
 18 36  1  0  0  0  0
 19 20  1  0  0  0  0
 20 24  1  0  0  0  0
 20 21  1  0  0  0  0
 21 22  2  0  0  0  0
 21 37  1  0  0  0  0
 22 23  1  0  0  0  0
 23 24  2  0  0  0  0
 23 38  1  0  0  0  0
 25 26  1  0  0  0  0
 25 27  1  0  0  0  0
 25 28  1  0  0  0  0
M  END
$$$$
ZINC48620532
 OpenBabel01252620473D

 28 29  0  0  1  0  0  0  0  0999 V2000
   -0.0424    1.5629   -0.0331 C   0  0  0  0  0  0  0  0  0  0  0  0
   -0.0127    0.0334   -0.0144 C   0  0  2  0  0  0  0  0  0  0  0  0
    0.5035   -0.3309   -0.9026 H   0  0  0  0  0  0  0  0  0  0  0  0
   -1.4235   -0.4963   -0.0007 C   0  0  0  0  0  0  0  0  0  0  0  0
   -2.2201   -0.2590    1.0554 O   0  5  0  0  0  0  0  0  0  0  0  0
   -1.8919   -1.2165   -1.0601 C   0  0  0  0  0  0  0  0  0  0  0  0
   -1.0431   -1.4693   -2.1853 C   0  0  0  0  0  0  0  0  0  0  0  0
   -0.3698   -1.6699   -3.0780 N   0  0  0  0  0  0  0  0  0  0  0  0
   -3.2685   -1.7333   -1.0467 C   0  0  0  0  0  0  0  0  0  0  0  0
   -3.9525   -1.6175   -0.0462 O   0  0  0  0  0  0  0  0  0  0  0  0
   -3.8197   -2.3909   -2.2434 C   0  0  0  0  0  0  0  0  0  0  0  0
   -4.9020   -3.3408   -2.1523 C   0  0  0  0  0  0  0  0  0  0  0  0
   -5.3151   -3.8716   -3.3206 C   0  0  0  0  0  0  0  0  0  0  0  0
   -4.2516   -3.0930   -4.5164 S   0  0  0  0  0  0  0  0  0  0  0  0
   -3.3302   -2.1239   -3.5029 C   0  0  0  0  0  0  0  0  0  0  0  0
    0.8615   -0.5364    1.4694 S   0  0  0  0  0  0  0  0  0  0  0  0
    2.5128    0.0320    1.2359 C   0  0  0  0  0  0  0  0  0  0  0  0
    3.0447    0.7231    0.2355 N   0  0  0  0  0  0  0  0  0  0  0  0
    4.2624    1.0515    0.2284 N   0  0  0  0  0  0  0  0  0  0  0  0
    5.0819    0.7315    1.2092 C   0  0  0  0  0  0  0  0  0  0  0  0
    3.9533   -0.1501    2.2839 S   0  0  0  0  0  0  0  0  0  0  0  0
    0.9780    1.9460   -0.0430 H   0  0  0  0  0  0  0  0  0  0  0  0
   -0.5677    1.9053   -0.9247 H   0  0  0  0  0  0  0  0  0  0  0  0
   -0.5586    1.9272    0.8551 H   0  0  0  0  0  0  0  0  0  0  0  0
   -5.3523   -3.6097   -1.2082 H   0  0  0  0  0  0  0  0  0  0  0  0
   -6.1001   -4.5938   -3.4897 H   0  0  0  0  0  0  0  0  0  0  0  0
   -2.5344   -1.4467   -3.7755 H   0  0  0  0  0  0  0  0  0  0  0  0
    6.1335    0.9443    1.3321 H   0  0  0  0  0  0  0  0  0  0  0  0
  1  2  1  0  0  0  0
  1 22  1  0  0  0  0
  1 23  1  0  0  0  0
  1 24  1  0  0  0  0
  2  3  1  6  0  0  0
  2  4  1  0  0  0  0
  2 16  1  0  0  0  0
  4  5  1  0  0  0  0
  4  6  2  0  0  0  0
  6  7  1  0  0  0  0
  6  9  1  0  0  0  0
  7  8  3  0  0  0  0
  9 10  2  0  0  0  0
  9 11  1  0  0  0  0
 11 15  2  0  0  0  0
 11 12  1  0  0  0  0
 12 13  2  0  0  0  0
 12 25  1  0  0  0  0
 13 14  1  0  0  0  0
 13 26  1  0  0  0  0
 14 15  1  0  0  0  0
 15 27  1  0  0  0  0
 16 17  1  0  0  0  0
 17 21  1  0  0  0  0
 17 18  2  0  0  0  0
 18 19  1  0  0  0  0
 19 20  2  0  0  0  0
 20 21  1  0  0  0  0
 20 28  1  0  0  0  0
M  CHG  1   5  -1
M  END
$$$$
ZINC65435954
 OpenBabel01252620473D

 32 33  0  0  0  0  0  0  0  0999 V2000
   -0.0184    1.5028    0.0103 C   0  0  0  0  0  0  0  0  0  0  0  0
    0.0021   -0.0041    0.0020 C   0  0  0  0  0  0  0  0  0  0  0  0
    0.0203   -0.6160    1.0489 O   0  0  0  0  0  0  0  0  0  0  0  0
    0.0001   -0.6716   -1.1688 N   0  0  0  0  0  0  0  0  0  0  0  0
    0.0199   -2.1365   -1.1769 C   0  0  0  0  0  0  0  0  0  0  0  0
    0.0131   -2.6387   -2.6221 C   0  0  0  0  0  0  0  0  0  0  0  0
    0.0335   -4.1455   -2.6304 C   0  0  0  0  0  0  0  0  0  0  0  0
   -0.8521   -4.9438   -3.2563 C   0  0  0  0  0  0  0  0  0  0  0  0
   -0.4665   -6.2358   -3.0082 N   0  0  0  0  0  0  0  0  0  0  0  0
    0.6482   -6.1772   -2.2345 C   0  0  0  0  0  0  0  0  0  0  0  0
    0.9402   -4.9232   -2.0204 N   0  0  0  0  0  0  0  0  0  0  0  0
   -1.1035   -7.3988   -3.4664 C   0  0  0  0  0  0  0  0  0  0  0  0
   -2.2391   -7.3021   -4.2583 C   0  0  0  0  0  0  0  0  0  0  0  0
   -2.8673   -8.4516   -4.7101 C   0  0  0  0  0  0  0  0  0  0  0  0
   -2.3599   -9.6990   -4.3699 C   0  0  0  0  0  0  0  0  0  0  0  0
   -1.2263   -9.7939   -3.5794 C   0  0  0  0  0  0  0  0  0  0  0  0
   -0.5950   -8.6461   -3.1325 C   0  0  0  0  0  0  0  0  0  0  0  0
   -0.7337  -11.0076   -3.2486 F   0  0  0  0  0  0  0  0  0  0  0  0
   -2.9722  -10.8201   -4.8097 F   0  0  0  0  0  0  0  0  0  0  0  0
   -3.9801   -8.3584   -5.4856 O   0  5  0  0  0  0  0  0  0  0  0  0
    1.0042    1.8801    0.0026 H   0  0  0  0  0  0  0  0  0  0  0  0
   -0.5455    1.8639   -0.8728 H   0  0  0  0  0  0  0  0  0  0  0  0
   -0.5286    1.8543    0.9071 H   0  0  0  0  0  0  0  0  0  0  0  0
   -0.0145   -0.1822   -2.0061 H   0  0  0  0  0  0  0  0  0  0  0  0
    0.9196   -2.4904   -0.6735 H   0  0  0  0  0  0  0  0  0  0  0  0
   -0.8601   -2.5146   -0.6566 H   0  0  0  0  0  0  0  0  0  0  0  0
   -0.8866   -2.2847   -3.1255 H   0  0  0  0  0  0  0  0  0  0  0  0
    0.8931   -2.2605   -3.1423 H   0  0  0  0  0  0  0  0  0  0  0  0
   -1.7028   -4.6271   -3.8414 H   0  0  0  0  0  0  0  0  0  0  0  0
    1.2028   -7.0260   -1.8626 H   0  0  0  0  0  0  0  0  0  0  0  0
   -2.6330   -6.3317   -4.5219 H   0  0  0  0  0  0  0  0  0  0  0  0
    0.2915   -8.7212   -2.5202 H   0  0  0  0  0  0  0  0  0  0  0  0
  1  2  1  0  0  0  0
  1 21  1  0  0  0  0
  1 22  1  0  0  0  0
  1 23  1  0  0  0  0
  2  3  2  0  0  0  0
  2  4  1  0  0  0  0
  4  5  1  0  0  0  0
  4 24  1  0  0  0  0
  5  6  1  0  0  0  0
  5 25  1  0  0  0  0
  5 26  1  0  0  0  0
  6  7  1  0  0  0  0
  6 27  1  0  0  0  0
  6 28  1  0  0  0  0
  7 11  1  0  0  0  0
  7  8  2  0  0  0  0
  8  9  1  0  0  0  0
  8 29  1  0  0  0  0
  9 10  1  0  0  0  0
  9 12  1  0  0  0  0
 10 11  2  0  0  0  0
 10 30  1  0  0  0  0
 12 17  2  0  0  0  0
 12 13  1  0  0  0  0
 13 14  2  0  0  0  0
 13 31  1  0  0  0  0
 14 15  1  0  0  0  0
 14 20  1  0  0  0  0
 15 16  2  0  0  0  0
 15 19  1  0  0  0  0
 16 17  1  0  0  0  0
 16 18  1  0  0  0  0
 17 32  1  0  0  0  0
M  CHG  1  20  -1
M  END
$$$$
ZINC17724502
 OpenBabel01252620473D

 21 22  0  0  0  0  0  0  0  0999 V2000
   -0.0555    4.2436    0.0249 C   0  0  0  0  0  0  0  0  0  0  0  0
    1.1539    3.5712    0.0097 C   0  0  0  0  0  0  0  0  0  0  0  0
    1.1799    2.1922    0.0026 C   0  0  0  0  0  0  0  0  0  0  0  0
   -0.0180    1.4745    0.0101 C   0  0  0  0  0  0  0  0  0  0  0  0
   -1.2349    2.1593    0.0196 C   0  0  0  0  0  0  0  0  0  0  0  0
   -1.2463    3.5385    0.0329 C   0  0  0  0  0  0  0  0  0  0  0  0
    0.0021   -0.0041    0.0020 C   0  0  0  0  0  0  0  0  0  0  0  0
    0.5045   -0.7849    1.0128 C   0  0  0  0  0  0  0  0  0  0  0  0
    0.3634   -2.2090    0.6814 C   0  0  0  0  0  0  0  0  0  0  0  0
    0.7072   -3.1476    1.3679 O   0  0  0  0  0  0  0  0  0  0  0  0
   -0.2875   -2.2811   -0.6822 C   0  0  0  0  0  0  0  0  0  0  0  0
   -0.5067   -0.8413   -1.0908 C   0  0  0  0  0  0  0  0  0  0  0  0
   -1.0076   -0.4527   -2.1248 O   0  0  0  0  0  0  0  0  0  0  0  0
    1.0508   -0.3095    2.1560 O   0  5  0  0  0  0  0  0  0  0  0  0
   -0.0702    5.3235    0.0308 H   0  0  0  0  0  0  0  0  0  0  0  0
    2.0796    4.1275    0.0039 H   0  0  0  0  0  0  0  0  0  0  0  0
    2.1244    1.6686   -0.0085 H   0  0  0  0  0  0  0  0  0  0  0  0
   -2.1649    1.6103    0.0214 H   0  0  0  0  0  0  0  0  0  0  0  0
   -2.1867    4.0694    0.0447 H   0  0  0  0  0  0  0  0  0  0  0  0
    0.3825   -2.8031   -1.3812 H   0  0  0  0  0  0  0  0  0  0  0  0
   -1.2378   -2.8299   -0.6063 H   0  0  0  0  0  0  0  0  0  0  0  0
  1  6  2  0  0  0  0
  1  2  1  0  0  0  0
  1 15  1  0  0  0  0
  2  3  2  0  0  0  0
  2 16  1  0  0  0  0
  3  4  1  0  0  0  0
  3 17  1  0  0  0  0
  4  5  2  0  0  0  0
  4  7  1  0  0  0  0
  5  6  1  0  0  0  0
  5 18  1  0  0  0  0
  6 19  1  0  0  0  0
  7 12  1  0  0  0  0
  7  8  2  0  0  0  0
  8  9  1  0  0  0  0
  8 14  1  0  0  0  0
  9 10  2  0  0  0  0
  9 11  1  0  0  0  0
 11 12  1  0  0  0  0
 11 20  1  0  0  0  0
 11 21  1  0  0  0  0
 12 13  2  0  0  0  0
M  CHG  1  14  -1
M  END
$$$$
ZINC57116567
 OpenBabel01252620473D

 40 42  0  0  0  0  0  0  0  0999 V2000
    0.0697   -3.3053    1.5378 C   0  0  0  0  0  0  0  0  0  0  0  0
    0.0426   -2.1181    0.6798 N   0  0  0  0  0  0  0  0  0  0  0  0
    0.1208   -2.1188   -0.6733 C   0  0  0  0  0  0  0  0  0  0  0  0
    0.0633   -0.8400   -1.1161 C   0  0  0  0  0  0  0  0  0  0  0  0
   -0.0553   -0.0048   -0.0009 C   0  0  0  0  0  0  0  0  0  0  0  0
   -0.0725   -0.8167    1.1132 C   0  0  0  0  0  0  0  0  0  0  0  0
   -0.1886   -0.3742    2.5068 C   0  0  0  0  0  0  0  0  0  0  0  0
   -0.1005   -1.1833    3.4116 O   0  0  0  0  0  0  0  0  0  0  0  0
   -0.3928    0.9286    2.7854 N   0  0  0  0  0  0  0  0  0  0  0  0
   -0.3979    1.3681    4.1156 N   0  0  0  0  0  0  0  0  0  0  0  0
    0.6139    2.5911    4.5875 S   0  0  0  0  0  0  0  0  0  0  0  0
    0.2759    2.9019    5.9322 O   0  0  0  0  0  0  0  0  0  0  0  0
    1.9258    2.2045    4.2016 O   0  0  0  0  0  0  0  0  0  0  0  0
    0.2028    4.0082    3.6245 C   0  0  0  0  0  0  0  0  0  0  0  0
    0.8304    4.2215    2.4174 C   0  0  0  0  0  0  0  0  0  0  0  0
    0.5067    5.3466    1.6514 C   0  0  0  0  0  0  0  0  0  0  0  0
   -0.4579    6.2514    2.1193 C   0  0  0  0  0  0  0  0  0  0  0  0
   -1.0838    6.0203    3.3384 C   0  0  0  0  0  0  0  0  0  0  0  0
   -0.7539    4.8986    4.0829 C   0  0  0  0  0  0  0  0  0  0  0  0
   -2.0284    6.8802    3.8093 O   0  0  0  0  0  0  0  0  0  0  0  0
   -2.0679    8.1814    3.2132 C   0  0  0  0  0  0  0  0  0  0  0  0
   -1.9905    8.0145    1.6896 C   0  0  0  0  0  0  0  0  0  0  0  0
   -0.7658    7.3435    1.3739 O   0  0  0  0  0  0  0  0  0  0  0  0
    1.1753    5.5801    0.3612 C   0  0  0  0  0  0  0  0  0  0  0  0
    2.0163    4.7893   -0.0438 O   0  0  0  0  0  0  0  0  0  0  0  0
    0.8900    6.5649   -0.3062 O   0  0  0  0  0  1  0  0  0  0  0  0
   -0.9510   -3.6107    1.7678 H   0  0  0  0  0  0  0  0  0  0  0  0
    0.5836   -4.1156    1.0208 H   0  0  0  0  0  0  0  0  0  0  0  0
    0.5967   -3.0728    2.4632 H   0  0  0  0  0  0  0  0  0  0  0  0
    0.2138   -2.9958   -1.2967 H   0  0  0  0  0  0  0  0  0  0  0  0
    0.1022   -0.5219   -2.1475 H   0  0  0  0  0  0  0  0  0  0  0  0
   -0.1242    1.0730   -0.0107 H   0  0  0  0  0  0  0  0  0  0  0  0
   -0.5363    1.5619    2.0648 H   0  0  0  0  0  0  0  0  0  0  0  0
   -0.9942    0.9560    4.7603 H   0  0  0  0  0  0  0  0  0  0  0  0
    1.5720    3.5211    2.0625 H   0  0  0  0  0  0  0  0  0  0  0  0
   -1.2432    4.7200    5.0291 H   0  0  0  0  0  0  0  0  0  0  0  0
   -2.9991    8.6805    3.4815 H   0  0  0  0  0  0  0  0  0  0  0  0
   -1.2203    8.7713    3.5619 H   0  0  0  0  0  0  0  0  0  0  0  0
   -2.8354    7.4202    1.3415 H   0  0  0  0  0  0  0  0  0  0  0  0
   -2.0072    8.9937    1.2112 H   0  0  0  0  0  0  0  0  0  0  0  0
  1  2  1  0  0  0  0
  1 27  1  0  0  0  0
  1 28  1  0  0  0  0
  1 29  1  0  0  0  0
  2  6  1  0  0  0  0
  2  3  1  0  0  0  0
  3  4  2  0  0  0  0
  3 30  1  0  0  0  0
  4  5  1  0  0  0  0
  4 31  1  0  0  0  0
  5  6  2  0  0  0  0
  5 32  1  0  0  0  0
  6  7  1  0  0  0  0
  7  8  2  0  0  0  0
  7  9  1  0  0  0  0
  9 10  1  0  0  0  0
  9 33  1  0  0  0  0
 10 11  1  0  0  0  0
 10 34  1  0  0  0  0
 11 12  2  0  0  0  0
 11 13  2  0  0  0  0
 11 14  1  0  0  0  0
 14 19  2  0  0  0  0
 14 15  1  0  0  0  0
 15 16  2  0  0  0  0
 15 35  1  0  0  0  0
 16 17  1  0  0  0  0
 16 24  1  0  0  0  0
 17 23  1  0  0  0  0
 17 18  2  0  0  0  0
 18 19  1  0  0  0  0
 18 20  1  0  0  0  0
 19 36  1  0  0  0  0
 20 21  1  0  0  0  0
 21 22  1  0  0  0  0
 21 37  1  0  0  0  0
 21 38  1  0  0  0  0
 22 23  1  0  0  0  0
 22 39  1  0  0  0  0
 22 40  1  0  0  0  0
 24 25  2  0  0  0  0
 24 26  1  0  0  0  0
M  END
$$$$
ZINC58887695
 OpenBabel01252620473D

 49 51  0  0  1  0  0  0  0  0999 V2000
   -0.9380   -0.8902   -0.2966 C   0  0  0  0  0  0  0  0  0  0  0  0
    0.2472   -0.4917   -0.8861 C   0  0  0  0  0  0  0  0  0  0  0  0
    1.3713   -1.2901   -0.7867 C   0  0  0  0  0  0  0  0  0  0  0  0
    1.3104   -2.4868   -0.0974 C   0  0  0  0  0  0  0  0  0  0  0  0
    0.1254   -2.8849    0.4928 C   0  0  0  0  0  0  0  0  0  0  0  0
   -0.9990   -2.0872    0.3922 C   0  0  0  0  0  0  0  0  0  0  0  0
    2.5356   -3.3576    0.0102 C   0  0  1  0  0  0  0  0  0  0  0  0
    3.2415   -3.0903   -0.7761 H   0  0  0  0  0  0  0  0  0  0  0  0
    3.1912   -3.1490    1.3768 C   0  0  0  0  0  0  0  0  0  0  0  0
    4.5013   -3.9368    1.4395 C   0  0  0  0  0  0  0  0  0  0  0  0
    5.1470   -3.7313    2.7855 C   0  0  0  0  0  0  0  0  0  0  0  0
    4.6121   -3.0244    3.6132 O   0  0  0  0  0  0  0  0  0  0  0  0
    6.3191   -4.3331    3.0696 N   0  0  0  0  0  0  0  0  0  0  0  0
    6.9194   -4.1421    4.3209 N   0  0  0  0  0  0  0  0  0  0  0  0
    8.0907   -4.7435    4.6048 C   0  0  0  0  0  0  0  0  0  0  0  0
    8.6211   -4.6595    5.8826 C   0  0  0  0  0  0  0  0  0  0  0  0
    6.4915   -3.5767    4.9829 H   0  0  0  0  0  0  0  0  0  0  0  0
    7.8889   -4.0054    6.9763 C   0  0  0  0  0  0  0  0  0  0  0  0
    6.6703   -3.4643    6.7648 O   0  5  0  0  0  0  0  0  0  0  0  0
    8.4508   -3.9594    8.1724 N   0  0  0  0  0  0  0  0  0  0  0  0
    9.6496   -4.4842    8.4100 C   0  0  0  0  0  0  0  0  0  0  0  0
   10.2835   -4.3693    9.9961 S   0  0  0  0  0  0  0  0  0  0  0  0
   10.3886   -5.0990    7.4748 N   0  0  0  0  0  0  0  0  0  0  0  0
    9.9420   -5.2275    6.2070 C   0  0  0  0  0  0  0  0  0  0  0  0
   10.6100   -5.7900    5.3591 O   0  0  0  0  0  0  0  0  0  0  0  0
   11.6421   -5.6211    7.8204 C   0  0  0  0  0  0  0  0  0  0  0  0
   12.7838   -4.8452    7.6708 C   0  0  0  0  0  0  0  0  0  0  0  0
   14.0182   -5.3622    8.0120 C   0  0  0  0  0  0  0  0  0  0  0  0
   14.1178   -6.6525    8.5022 C   0  0  0  0  0  0  0  0  0  0  0  0
   12.9814   -7.4278    8.6522 C   0  0  0  0  0  0  0  0  0  0  0  0
   11.7440   -6.9133    8.3182 C   0  0  0  0  0  0  0  0  0  0  0  0
   15.6710   -7.2998    8.9291 Cl  0  0  0  0  0  0  0  0  0  0  0  0
    2.1595   -4.7288   -0.1334 O   0  0  0  0  0  0  0  0  0  0  0  0
   -1.8150   -0.2643   -0.3705 H   0  0  0  0  0  0  0  0  0  0  0  0
    0.2948    0.4432   -1.4246 H   0  0  0  0  0  0  0  0  0  0  0  0
    2.2970   -0.9791   -1.2478 H   0  0  0  0  0  0  0  0  0  0  0  0
    0.0777   -3.8200    1.0311 H   0  0  0  0  0  0  0  0  0  0  0  0
   -1.9249   -2.3984    0.8530 H   0  0  0  0  0  0  0  0  0  0  0  0
    3.3974   -2.0887    1.5227 H   0  0  0  0  0  0  0  0  0  0  0  0
    2.5186   -3.4995    2.1597 H   0  0  0  0  0  0  0  0  0  0  0  0
    4.2950   -4.9971    1.2935 H   0  0  0  0  0  0  0  0  0  0  0  0
    5.1738   -3.5863    0.6565 H   0  0  0  0  0  0  0  0  0  0  0  0
    6.7469   -4.8985    2.4076 H   0  0  0  0  0  0  0  0  0  0  0  0
    8.6166   -5.2912    3.8368 H   0  0  0  0  0  0  0  0  0  0  0  0
   12.7067   -3.8385    7.2876 H   0  0  0  0  0  0  0  0  0  0  0  0
   14.9066   -4.7591    7.8959 H   0  0  0  0  0  0  0  0  0  0  0  0
   13.0617   -8.4346    9.0346 H   0  0  0  0  0  0  0  0  0  0  0  0
   10.8568   -7.5170    8.4399 H   0  0  0  0  0  0  0  0  0  0  0  0
    1.5313   -5.0363    0.5344 H   0  0  0  0  0  0  0  0  0  0  0  0
  1  6  2  0  0  0  0
  1  2  1  0  0  0  0
  1 34  1  0  0  0  0
  2  3  2  0  0  0  0
  2 35  1  0  0  0  0
  3  4  1  0  0  0  0
  3 36  1  0  0  0  0
  4  5  2  0  0  0  0
  4  7  1  0  0  0  0
  5  6  1  0  0  0  0
  5 37  1  0  0  0  0
  6 38  1  0  0  0  0
  7  8  1  6  0  0  0
  7  9  1  0  0  0  0
  7 33  1  0  0  0  0
  9 10  1  0  0  0  0
  9 39  1  0  0  0  0
  9 40  1  0  0  0  0
 10 11  1  0  0  0  0
 10 41  1  0  0  0  0
 10 42  1  0  0  0  0
 11 12  2  0  0  0  0
 11 13  1  0  0  0  0
 13 43  1  0  0  0  0
 13 14  1  0  0  0  0
 14 15  1  0  0  0  0
 14 17  1  0  0  0  0
 15 16  2  0  0  0  0
 15 44  1  0  0  0  0
 16 24  1  0  0  0  0
 16 18  1  0  0  0  0
 18 19  1  0  0  0  0
 18 20  2  0  0  0  0
 20 21  1  0  0  0  0
 21 22  2  0  0  0  0
 21 23  1  0  0  0  0
 23 26  1  0  0  0  0
 23 24  1  0  0  0  0
 24 25  2  0  0  0  0
 26 31  2  0  0  0  0
 26 27  1  0  0  0  0
 27 28  2  0  0  0  0
 27 45  1  0  0  0  0
 28 29  1  0  0  0  0
 28 46  1  0  0  0  0
 29 30  2  0  0  0  0
 29 32  1  0  0  0  0
 30 31  1  0  0  0  0
 30 47  1  0  0  0  0
 31 48  1  0  0  0  0
 33 49  1  0  0  0  0
M  CHG  1  19  -1
M  END
$$$$
ZINC40027876
 OpenBabel01252620473D

 60 62  0  0  1  0  0  0  0  0999 V2000
    2.0493    1.5657   -1.3890 C   0  0  0  0  0  0  0  0  0  0  0  0
    2.0987    0.0595   -1.3901 C   0  0  0  0  0  0  0  0  0  0  0  0
    1.0620   -0.6620   -1.9381 C   0  0  0  0  0  0  0  0  0  0  0  0
    1.1089   -2.0592   -1.9386 C   0  0  0  0  0  0  0  0  0  0  0  0
    2.2096   -2.7182   -1.3818 C   0  0  0  0  0  0  0  0  0  0  0  0
    3.2417   -1.9894   -0.8360 C   0  0  0  0  0  0  0  0  0  0  0  0
    3.1937   -0.5995   -0.8427 C   0  0  0  0  0  0  0  0  0  0  0  0
    4.2159    0.1154   -0.3086 O   0  0  0  0  0  0  0  0  0  0  0  0
    5.3098   -0.6249    0.2368 C   0  0  0  0  0  0  0  0  0  0  0  0
    6.3572    0.3446    0.7883 C   0  0  0  0  0  0  0  0  0  0  0  0
    5.7647    1.1189    1.9673 C   0  0  0  0  0  0  0  0  0  0  0  0
    7.5824   -0.4418    1.2587 C   0  0  0  0  0  0  0  0  0  0  0  0
   -0.0005   -2.8368   -2.5246 C   0  0  0  0  0  0  0  0  0  0  0  0
   -0.9891   -2.2647   -2.9449 O   0  0  0  0  0  0  0  0  0  0  0  0
    0.0885   -4.2985   -2.6005 C   0  0  0  0  0  0  0  0  0  0  0  0
    0.1802   -5.0442   -3.7260 C   0  0  0  0  0  0  0  0  0  0  0  0
    0.2484   -6.4738   -3.3572 C   0  0  0  0  0  0  0  0  0  0  0  0
    0.3359   -7.3939   -4.1458 O   0  0  0  0  0  0  0  0  0  0  0  0
    0.1991   -6.6057   -2.0192 N   0  0  0  0  0  0  0  0  0  0  0  0
    0.1021   -5.2620   -1.4368 C   0  0  2  0  0  0  0  0  0  0  0  0
    0.9626   -5.0652   -0.7973 H   0  0  0  0  0  0  0  0  0  0  0  0
   -1.1733   -5.1353   -0.6441 C   0  0  0  0  0  0  0  0  0  0  0  0
   -2.3130   -5.7992   -1.0602 C   0  0  0  0  0  0  0  0  0  0  0  0
   -3.4835   -5.6850   -0.3367 C   0  0  0  0  0  0  0  0  0  0  0  0
   -3.5154   -4.9021    0.8111 C   0  0  0  0  0  0  0  0  0  0  0  0
   -2.3681   -4.2368    1.2264 C   0  0  0  0  0  0  0  0  0  0  0  0
   -1.1998   -4.3598    0.5007 C   0  0  0  0  0  0  0  0  0  0  0  0
   -5.0069   -4.7529    1.7372 S   0  0  0  0  0  0  0  0  0  0  0  0
   -4.5621   -3.6563    3.1120 C   0  0  0  0  0  0  0  0  0  0  0  0
    0.2407   -7.8669   -1.2751 C   0  0  0  0  0  0  0  0  0  0  0  0
    1.6721   -8.2168   -0.9592 C   0  0  0  0  0  0  0  0  0  0  0  0
    2.0336   -8.4401    0.2800 C   0  0  0  0  0  0  0  0  0  0  0  0
    0.2054   -4.5582   -4.9885 O   0  5  0  0  0  0  0  0  0  0  0  0
    2.5045    1.9448   -2.3040 H   0  0  0  0  0  0  0  0  0  0  0  0
    1.0116    1.8951   -1.3359 H   0  0  0  0  0  0  0  0  0  0  0  0
    2.5960    1.9465   -0.5264 H   0  0  0  0  0  0  0  0  0  0  0  0
    0.2136   -0.1492   -2.3668 H   0  0  0  0  0  0  0  0  0  0  0  0
    2.2495   -3.7975   -1.3799 H   0  0  0  0  0  0  0  0  0  0  0  0
    4.0921   -2.4975   -0.4059 H   0  0  0  0  0  0  0  0  0  0  0  0
    4.9494   -1.2664    1.0410 H   0  0  0  0  0  0  0  0  0  0  0  0
    5.7585   -1.2387   -0.5442 H   0  0  0  0  0  0  0  0  0  0  0  0
    6.6526    1.0438    0.0060 H   0  0  0  0  0  0  0  0  0  0  0  0
    6.5108    1.8096    2.3602 H   0  0  0  0  0  0  0  0  0  0  0  0
    4.8918    1.6792    1.6322 H   0  0  0  0  0  0  0  0  0  0  0  0
    5.4692    0.4197    2.7496 H   0  0  0  0  0  0  0  0  0  0  0  0
    8.0046   -0.9935    0.4187 H   0  0  0  0  0  0  0  0  0  0  0  0
    8.3286    0.2488    1.6515 H   0  0  0  0  0  0  0  0  0  0  0  0
    7.2870   -1.1411    2.0409 H   0  0  0  0  0  0  0  0  0  0  0  0
   -2.2875   -6.4074   -1.9523 H   0  0  0  0  0  0  0  0  0  0  0  0
   -4.3733   -6.2031   -0.6626 H   0  0  0  0  0  0  0  0  0  0  0  0
   -2.3892   -3.6275    2.1179 H   0  0  0  0  0  0  0  0  0  0  0  0
   -0.3068   -3.8463    0.8251 H   0  0  0  0  0  0  0  0  0  0  0  0
   -3.7607   -4.1106    3.6945 H   0  0  0  0  0  0  0  0  0  0  0  0
   -4.2259   -2.6973    2.7176 H   0  0  0  0  0  0  0  0  0  0  0  0
   -5.4324   -3.5018    3.7498 H   0  0  0  0  0  0  0  0  0  0  0  0
   -0.3205   -7.7599   -0.3469 H   0  0  0  0  0  0  0  0  0  0  0  0
   -0.2024   -8.6594   -1.8783 H   0  0  0  0  0  0  0  0  0  0  0  0
    2.3998   -8.2836   -1.7544 H   0  0  0  0  0  0  0  0  0  0  0  0
    3.0594   -8.6908    0.5064 H   0  0  0  0  0  0  0  0  0  0  0  0
    1.3059   -8.3733    1.0752 H   0  0  0  0  0  0  0  0  0  0  0  0
  1  2  1  0  0  0  0
  1 34  1  0  0  0  0
  1 35  1  0  0  0  0
  1 36  1  0  0  0  0
  2  7  2  0  0  0  0
  2  3  1  0  0  0  0
  3  4  2  0  0  0  0
  3 37  1  0  0  0  0
  4  5  1  0  0  0  0
  4 13  1  0  0  0  0
  5  6  2  0  0  0  0
  5 38  1  0  0  0  0
  6  7  1  0  0  0  0
  6 39  1  0  0  0  0
  7  8  1  0  0  0  0
  8  9  1  0  0  0  0
  9 10  1  0  0  0  0
  9 40  1  0  0  0  0
  9 41  1  0  0  0  0
 10 11  1  0  0  0  0
 10 12  1  0  0  0  0
 10 42  1  0  0  0  0
 11 43  1  0  0  0  0
 11 44  1  0  0  0  0
 11 45  1  0  0  0  0
 12 46  1  0  0  0  0
 12 47  1  0  0  0  0
 12 48  1  0  0  0  0
 13 14  2  0  0  0  0
 13 15  1  0  0  0  0
 15 20  1  0  0  0  0
 15 16  2  0  0  0  0
 16 17  1  0  0  0  0
 16 33  1  0  0  0  0
 17 18  2  0  0  0  0
 17 19  1  0  0  0  0
 19 20  1  0  0  0  0
 19 30  1  0  0  0  0
 20 21  1  1  0  0  0
 20 22  1  0  0  0  0
 22 27  2  0  0  0  0
 22 23  1  0  0  0  0
 23 24  2  0  0  0  0
 23 49  1  0  0  0  0
 24 25  1  0  0  0  0
 24 50  1  0  0  0  0
 25 26  2  0  0  0  0
 25 28  1  0  0  0  0
 26 27  1  0  0  0  0
 26 51  1  0  0  0  0
 27 52  1  0  0  0  0
 28 29  1  0  0  0  0
 29 53  1  0  0  0  0
 29 54  1  0  0  0  0
 29 55  1  0  0  0  0
 30 31  1  0  0  0  0
 30 56  1  0  0  0  0
 30 57  1  0  0  0  0
 31 32  2  0  0  0  0
 31 58  1  0  0  0  0
 32 59  1  0  0  0  0
 32 60  1  0  0  0  0
M  CHG  1  33  -1
M  END
$$$$
ZINC35693186
 OpenBabel01252620473D

 59 62  0  0  1  0  0  0  0  0999 V2000
    0.3745    1.2296    0.7626 C   0  0  0  0  0  0  0  0  0  0  0  0
    0.2680   -0.2346    0.4221 C   0  0  0  0  0  0  0  0  0  0  0  0
   -0.9693   -0.8496    0.4170 C   0  0  0  0  0  0  0  0  0  0  0  0
   -1.0243   -2.3203    0.0684 C   0  0  1  0  0  0  0  0  0  0  0  0
   -1.6794   -2.4362   -0.7949 H   0  0  0  0  0  0  0  0  0  0  0  0
    0.2663   -2.9906   -0.2428 N   0  0  0  0  0  0  0  0  0  0  0  0
    0.4535   -4.3152   -0.5846 C   0  0  0  0  0  0  0  0  0  0  0  0
    1.7169   -4.7266   -0.8306 C   0  0  0  0  0  0  0  0  0  0  0  0
    2.6483   -3.2290   -0.5768 S   0  0  0  0  0  0  0  0  0  0  0  0
    1.3810   -2.2020   -0.1816 C   0  0  0  0  0  0  0  0  0  0  0  0
    1.3592   -0.9211    0.1248 N   0  0  0  0  0  0  0  0  0  0  0  0
   -0.6813   -5.2450   -0.6771 C   0  0  0  0  0  0  0  0  0  0  0  0
   -0.4612   -6.5578   -0.8824 C   0  0  0  0  0  0  0  0  0  0  0  0
    0.8050   -7.0413   -0.8793 O   0  5  0  0  0  0  0  0  0  0  0  0
   -1.5285   -7.4135   -1.0965 N   0  0  0  0  0  0  0  0  0  0  0  0
   -1.2850   -8.8190   -1.4307 C   0  0  0  0  0  0  0  0  0  0  0  0
   -2.5961   -9.4982   -1.7316 C   0  0  0  0  0  0  0  0  0  0  0  0
   -3.0244   -9.6069   -3.0414 C   0  0  0  0  0  0  0  0  0  0  0  0
   -4.2320  -10.2336   -3.3074 C   0  0  0  0  0  0  0  0  0  0  0  0
   -4.9670  -10.7298   -2.2413 C   0  0  0  0  0  0  0  0  0  0  0  0
   -4.4748  -10.5842   -0.9583 C   0  0  0  0  0  0  0  0  0  0  0  0
   -3.3188   -9.9868   -0.7430 N   0  0  0  0  0  0  0  0  0  0  0  0
   -1.6568   -3.0482    1.2265 C   0  0  0  0  0  0  0  0  0  0  0  0
   -0.9439   -3.2373    2.3958 C   0  0  0  0  0  0  0  0  0  0  0  0
   -1.5231   -3.9043    3.4586 C   0  0  0  0  0  0  0  0  0  0  0  0
   -2.8179   -4.3831    3.3520 C   0  0  0  0  0  0  0  0  0  0  0  0
   -3.5309   -4.1931    2.1804 C   0  0  0  0  0  0  0  0  0  0  0  0
   -2.9515   -3.5212    1.1208 C   0  0  0  0  0  0  0  0  0  0  0  0
   -3.3850   -5.0357    4.3902 F   0  0  0  0  0  0  0  0  0  0  0  0
   -2.1335   -0.1352    0.7247 C   0  0  0  0  0  0  0  0  0  0  0  0
   -2.0658    1.0494    1.0032 O   0  0  0  0  0  0  0  0  0  0  0  0
   -3.3322   -0.7592    0.7130 O   0  0  0  0  0  0  0  0  0  0  0  0
   -4.4780    0.0309    1.0368 C   0  0  0  0  0  0  0  0  0  0  0  0
   -5.7336   -0.8410    0.9718 C   0  0  0  0  0  0  0  0  0  0  0  0
   -5.6686   -1.8461    1.9855 O   0  0  0  0  0  0  0  0  0  0  0  0
   -6.7995   -2.7193    2.0115 C   0  0  0  0  0  0  0  0  0  0  0  0
    1.4183    1.5395    0.7114 H   0  0  0  0  0  0  0  0  0  0  0  0
   -0.2125    1.8115    0.0520 H   0  0  0  0  0  0  0  0  0  0  0  0
   -0.0052    1.3968    1.7705 H   0  0  0  0  0  0  0  0  0  0  0  0
    2.0705   -5.7086   -1.1084 H   0  0  0  0  0  0  0  0  0  0  0  0
   -1.6915   -4.8754   -0.5805 H   0  0  0  0  0  0  0  0  0  0  0  0
   -2.4375   -7.0824   -1.0253 H   0  0  0  0  0  0  0  0  0  0  0  0
   -0.6364   -8.8774   -2.3049 H   0  0  0  0  0  0  0  0  0  0  0  0
   -0.8039   -9.3148   -0.5876 H   0  0  0  0  0  0  0  0  0  0  0  0
   -2.4260   -9.2083   -3.8472 H   0  0  0  0  0  0  0  0  0  0  0  0
   -4.5920  -10.3327   -4.3208 H   0  0  0  0  0  0  0  0  0  0  0  0
   -5.9123  -11.2235   -2.4115 H   0  0  0  0  0  0  0  0  0  0  0  0
   -5.0411  -10.9679   -0.1226 H   0  0  0  0  0  0  0  0  0  0  0  0
    0.0661   -2.8641    2.4786 H   0  0  0  0  0  0  0  0  0  0  0  0
   -0.9659   -4.0523    4.3718 H   0  0  0  0  0  0  0  0  0  0  0  0
   -4.5408   -4.5664    2.0960 H   0  0  0  0  0  0  0  0  0  0  0  0
   -3.5090   -3.3689    0.2084 H   0  0  0  0  0  0  0  0  0  0  0  0
   -4.3680    0.4350    2.0432 H   0  0  0  0  0  0  0  0  0  0  0  0
   -4.5675    0.8505    0.3239 H   0  0  0  0  0  0  0  0  0  0  0  0
   -6.6155   -0.2205    1.1313 H   0  0  0  0  0  0  0  0  0  0  0  0
   -5.7958   -1.3159   -0.0073 H   0  0  0  0  0  0  0  0  0  0  0  0
   -6.8838   -3.2332    1.0540 H   0  0  0  0  0  0  0  0  0  0  0  0
   -6.6738   -3.4530    2.8078 H   0  0  0  0  0  0  0  0  0  0  0  0
   -7.7034   -2.1378    2.1926 H   0  0  0  0  0  0  0  0  0  0  0  0
  1  2  1  0  0  0  0
  1 37  1  0  0  0  0
  1 38  1  0  0  0  0
  1 39  1  0  0  0  0
  2 11  1  0  0  0  0
  2  3  2  0  0  0  0
  3  4  1  0  0  0  0
  3 30  1  0  0  0  0
  4  5  1  6  0  0  0
  4  6  1  0  0  0  0
  4 23  1  0  0  0  0
  6 10  1  0  0  0  0
  6  7  1  0  0  0  0
  7  8  2  0  0  0  0
  7 12  1  0  0  0  0
  8  9  1  0  0  0  0
  8 40  1  0  0  0  0
  9 10  1  0  0  0  0
 10 11  2  0  0  0  0
 12 13  2  0  0  0  0
 12 41  1  0  0  0  0
 13 14  1  0  0  0  0
 13 15  1  0  0  0  0
 15 16  1  0  0  0  0
 15 42  1  0  0  0  0
 16 17  1  0  0  0  0
 16 43  1  0  0  0  0
 16 44  1  0  0  0  0
 17 22  2  0  0  0  0
 17 18  1  0  0  0  0
 18 19  2  0  0  0  0
 18 45  1  0  0  0  0
 19 20  1  0  0  0  0
 19 46  1  0  0  0  0
 20 21  2  0  0  0  0
 20 47  1  0  0  0  0
 21 22  1  0  0  0  0
 21 48  1  0  0  0  0
 23 28  2  0  0  0  0
 23 24  1  0  0  0  0
 24 25  2  0  0  0  0
 24 49  1  0  0  0  0
 25 26  1  0  0  0  0
 25 50  1  0  0  0  0
 26 27  2  0  0  0  0
 26 29  1  0  0  0  0
 27 28  1  0  0  0  0
 27 51  1  0  0  0  0
 28 52  1  0  0  0  0
 30 31  2  0  0  0  0
 30 32  1  0  0  0  0
 32 33  1  0  0  0  0
 33 34  1  0  0  0  0
 33 53  1  0  0  0  0
 33 54  1  0  0  0  0
 34 35  1  0  0  0  0
 34 55  1  0  0  0  0
 34 56  1  0  0  0  0
 35 36  1  0  0  0  0
 36 57  1  0  0  0  0
 36 58  1  0  0  0  0
 36 59  1  0  0  0  0
M  CHG  1  14  -1
M  END
$$$$
ZINC40124995
 OpenBabel01252620473D

 46 48  0  0  1  0  0  0  0  0999 V2000
    0.7664    2.2801   -0.7345 C   0  0  0  0  0  0  0  0  0  0  0  0
    0.8796    0.8430   -1.2471 C   0  0  0  0  0  0  0  0  0  0  0  0
    1.3145   -0.0086   -0.1852 O   0  0  0  0  0  0  0  0  0  0  0  0
    1.4670   -1.3285   -0.4753 C   0  0  0  0  0  0  0  0  0  0  0  0
    1.2095   -1.7923   -1.7554 C   0  0  0  0  0  0  0  0  0  0  0  0
    1.3656   -3.1341   -2.0488 C   0  0  0  0  0  0  0  0  0  0  0  0
    1.7780   -4.0161   -1.0673 C   0  0  0  0  0  0  0  0  0  0  0  0
    2.0362   -3.5600    0.2119 C   0  0  0  0  0  0  0  0  0  0  0  0
    1.8877   -2.2152    0.5111 C   0  0  0  0  0  0  0  0  0  0  0  0
    2.1470   -1.7639    1.7675 O   0  0  0  0  0  0  0  0  0  0  0  0
    2.4652   -2.7451    2.7565 C   0  0  0  0  0  0  0  0  0  0  0  0
    1.9461   -5.4780   -1.3925 C   0  0  1  0  0  0  0  0  0  0  0  0
    1.8709   -5.6333   -2.4687 H   0  0  0  0  0  0  0  0  0  0  0  0
    3.2818   -5.9723   -0.8882 C   0  0  0  0  0  0  0  0  0  0  0  0
    3.0227   -6.9509    0.0086 C   0  0  0  0  0  0  0  0  0  0  0  0
    1.5613   -7.1304    0.1235 C   0  0  0  0  0  0  0  0  0  0  0  0
    1.0126   -7.9354    0.8497 O   0  0  0  0  0  0  0  0  0  0  0  0
    0.9261   -6.2705   -0.6957 N   0  0  0  0  0  0  0  0  0  0  0  0
    3.9552   -7.6549    0.6922 O   0  5  0  0  0  0  0  0  0  0  0  0
    4.6056   -5.4846   -1.2937 C   0  0  0  0  0  0  0  0  0  0  0  0
    5.6026   -5.8736   -0.7118 O   0  0  0  0  0  0  0  0  0  0  0  0
    4.7279   -4.5292   -2.3995 C   0  0  0  0  0  0  0  0  0  0  0  0
    5.8424   -3.8343   -2.8549 C   0  0  0  0  0  0  0  0  0  0  0  0
    5.6505   -3.0384   -3.8766 N   0  0  0  0  0  0  0  0  0  0  0  0
    4.4698   -2.9064   -4.4373 C   0  0  0  0  0  0  0  0  0  0  0  0
    3.4882   -3.9395   -3.5419 S   0  0  0  0  0  0  0  0  0  0  0  0
    4.0864   -2.0399   -5.6091 C   0  0  0  0  0  0  0  0  0  0  0  0
    7.1952   -3.9881   -2.2087 C   0  0  0  0  0  0  0  0  0  0  0  0
    0.0446    2.3191    0.0813 H   0  0  0  0  0  0  0  0  0  0  0  0
    1.7393    2.6154   -0.3751 H   0  0  0  0  0  0  0  0  0  0  0  0
    0.4348    2.9298   -1.5445 H   0  0  0  0  0  0  0  0  0  0  0  0
   -0.0933    0.5078   -1.6065 H   0  0  0  0  0  0  0  0  0  0  0  0
    1.6015    0.8041   -2.0629 H   0  0  0  0  0  0  0  0  0  0  0  0
    0.8865   -1.1055   -2.5238 H   0  0  0  0  0  0  0  0  0  0  0  0
    1.1646   -3.4944   -3.0469 H   0  0  0  0  0  0  0  0  0  0  0  0
    2.3579   -4.2511    0.9770 H   0  0  0  0  0  0  0  0  0  0  0  0
    2.6370   -2.2534    3.7140 H   0  0  0  0  0  0  0  0  0  0  0  0
    1.6366   -3.4467    2.8519 H   0  0  0  0  0  0  0  0  0  0  0  0
    3.3647   -3.2835    2.4580 H   0  0  0  0  0  0  0  0  0  0  0  0
   -0.0342   -6.1886   -0.8054 H   0  0  0  0  0  0  0  0  0  0  0  0
    4.1286   -2.6286   -6.5255 H   0  0  0  0  0  0  0  0  0  0  0  0
    3.0739   -1.6625   -5.4660 H   0  0  0  0  0  0  0  0  0  0  0  0
    4.7794   -1.2018   -5.6834 H   0  0  0  0  0  0  0  0  0  0  0  0
    7.7402   -4.7971   -2.6949 H   0  0  0  0  0  0  0  0  0  0  0  0
    7.7552   -3.0587   -2.3126 H   0  0  0  0  0  0  0  0  0  0  0  0
    7.0684   -4.2195   -1.1511 H   0  0  0  0  0  0  0  0  0  0  0  0
  1  2  1  0  0  0  0
  1 29  1  0  0  0  0
  1 30  1  0  0  0  0
  1 31  1  0  0  0  0
  2  3  1  0  0  0  0
  2 32  1  0  0  0  0
  2 33  1  0  0  0  0
  3  4  1  0  0  0  0
  4  9  2  0  0  0  0
  4  5  1  0  0  0  0
  5  6  2  0  0  0  0
  5 34  1  0  0  0  0
  6  7  1  0  0  0  0
  6 35  1  0  0  0  0
  7  8  2  0  0  0  0
  7 12  1  0  0  0  0
  8  9  1  0  0  0  0
  8 36  1  0  0  0  0
  9 10  1  0  0  0  0
 10 11  1  0  0  0  0
 11 37  1  0  0  0  0
 11 38  1  0  0  0  0
 11 39  1  0  0  0  0
 12 13  1  6  0  0  0
 12 18  1  0  0  0  0
 12 14  1  0  0  0  0
 14 15  2  0  0  0  0
 14 20  1  0  0  0  0
 15 16  1  0  0  0  0
 15 19  1  0  0  0  0
 16 17  2  0  0  0  0
 16 18  1  0  0  0  0
 18 40  1  0  0  0  0
 20 21  2  0  0  0  0
 20 22  1  0  0  0  0
 22 26  1  0  0  0  0
 22 23  2  0  0  0  0
 23 24  1  0  0  0  0
 23 28  1  0  0  0  0
 24 25  2  0  0  0  0
 25 26  1  0  0  0  0
 25 27  1  0  0  0  0
 27 41  1  0  0  0  0
 27 42  1  0  0  0  0
 27 43  1  0  0  0  0
 28 44  1  0  0  0  0
 28 45  1  0  0  0  0
 28 46  1  0  0  0  0
M  CHG  1  19  -1
M  END
$$$$
ZINC40048801
 OpenBabel01252620473D

 64 66  0  0  1  0  0  0  0  0999 V2000
   -4.2055   -2.4968   -6.3372 C   0  0  0  0  0  0  0  0  0  0  0  0
   -3.5433   -3.3693   -5.2690 C   0  0  0  0  0  0  0  0  0  0  0  0
   -4.2986   -3.2953   -4.0582 O   0  0  0  0  0  0  0  0  0  0  0  0
   -3.8942   -4.0840   -3.0306 C   0  0  0  0  0  0  0  0  0  0  0  0
   -2.7279   -4.8324   -3.1484 C   0  0  0  0  0  0  0  0  0  0  0  0
   -2.3139   -5.6332   -2.1084 C   0  0  0  0  0  0  0  0  0  0  0  0
   -3.0678   -5.6937   -0.9321 C   0  0  0  0  0  0  0  0  0  0  0  0
   -4.2395   -4.9397   -0.8179 C   0  0  0  0  0  0  0  0  0  0  0  0
   -4.6438   -4.1371   -1.8609 C   0  0  0  0  0  0  0  0  0  0  0  0
   -5.9036   -3.3195   -1.7368 C   0  0  0  0  0  0  0  0  0  0  0  0
   -2.6278   -6.5516    0.1856 C   0  0  0  0  0  0  0  0  0  0  0  0
   -3.3211   -6.6583    1.1802 O   0  0  0  0  0  0  0  0  0  0  0  0
   -1.3555   -7.2752    0.0977 C   0  0  0  0  0  0  0  0  0  0  0  0
   -1.1917   -8.6180    0.0588 C   0  0  0  0  0  0  0  0  0  0  0  0
    0.2505   -8.9289   -0.0296 C   0  0  0  0  0  0  0  0  0  0  0  0
    0.7207  -10.0480   -0.0809 O   0  0  0  0  0  0  0  0  0  0  0  0
    0.9658   -7.7895   -0.0450 N   0  0  0  0  0  0  0  0  0  0  0  0
    0.0250   -6.6653    0.0264 C   0  0  2  0  0  0  0  0  0  0  0  0
    0.1139   -6.0421   -0.8635 H   0  0  0  0  0  0  0  0  0  0  0  0
    0.2941   -5.8463    1.2625 C   0  0  0  0  0  0  0  0  0  0  0  0
    0.5635   -6.4773    2.4628 C   0  0  0  0  0  0  0  0  0  0  0  0
    0.8110   -5.7305    3.5995 C   0  0  0  0  0  0  0  0  0  0  0  0
    0.7899   -4.3464    3.5373 C   0  0  0  0  0  0  0  0  0  0  0  0
    0.5192   -3.7113    2.3291 C   0  0  0  0  0  0  0  0  0  0  0  0
    0.2767   -4.4658    1.1924 C   0  0  0  0  0  0  0  0  0  0  0  0
    0.4973   -2.3531    2.2630 O   0  0  0  0  0  0  0  0  0  0  0  0
    0.1018   -1.7704    1.0196 C   0  0  0  0  0  0  0  0  0  0  0  0
    1.0327   -3.6102    4.6547 O   0  0  0  0  0  0  0  0  0  0  0  0
    1.3026   -4.3296    5.8595 C   0  0  0  0  0  0  0  0  0  0  0  0
    1.5492   -3.3400    7.0001 C   0  0  0  0  0  0  0  0  0  0  0  0
    2.4251   -7.6886   -0.1254 C   0  0  0  0  0  0  0  0  0  0  0  0
    2.8516   -7.6212   -1.5932 C   0  0  0  0  0  0  0  0  0  0  0  0
    4.3757   -7.5159   -1.6771 C   0  0  0  0  0  0  0  0  0  0  0  0
    4.7740   -7.4529   -3.0480 O   0  0  0  0  0  0  0  0  0  0  0  0
   -2.1896   -9.5308    0.0952 O   0  5  0  0  0  0  0  0  0  0  0  0
   -3.6294   -2.5533   -7.2608 H   0  0  0  0  0  0  0  0  0  0  0  0
   -5.2197   -2.8523   -6.5193 H   0  0  0  0  0  0  0  0  0  0  0  0
   -4.2391   -1.4633   -5.9926 H   0  0  0  0  0  0  0  0  0  0  0  0
   -3.5097   -4.4029   -5.6136 H   0  0  0  0  0  0  0  0  0  0  0  0
   -2.5291   -3.0138   -5.0869 H   0  0  0  0  0  0  0  0  0  0  0  0
   -2.1465   -4.7854   -4.0573 H   0  0  0  0  0  0  0  0  0  0  0  0
   -1.4083   -6.2144   -2.2007 H   0  0  0  0  0  0  0  0  0  0  0  0
   -4.8248   -4.9839    0.0887 H   0  0  0  0  0  0  0  0  0  0  0  0
   -6.7525   -3.9040   -2.0917 H   0  0  0  0  0  0  0  0  0  0  0  0
   -6.0598   -3.0491   -0.6925 H   0  0  0  0  0  0  0  0  0  0  0  0
   -5.8097   -2.4141   -2.3364 H   0  0  0  0  0  0  0  0  0  0  0  0
    0.5803   -7.5560    2.5126 H   0  0  0  0  0  0  0  0  0  0  0  0
    1.0205   -6.2258    4.5360 H   0  0  0  0  0  0  0  0  0  0  0  0
    0.0700   -3.9753    0.2526 H   0  0  0  0  0  0  0  0  0  0  0  0
    0.7836   -2.0944    0.2333 H   0  0  0  0  0  0  0  0  0  0  0  0
   -0.9118   -2.0883    0.7754 H   0  0  0  0  0  0  0  0  0  0  0  0
    0.1320   -0.6839    1.1016 H   0  0  0  0  0  0  0  0  0  0  0  0
    0.4487   -4.9611    6.1047 H   0  0  0  0  0  0  0  0  0  0  0  0
    2.1868   -4.9518    5.7209 H   0  0  0  0  0  0  0  0  0  0  0  0
    1.7551   -3.8887    7.9191 H   0  0  0  0  0  0  0  0  0  0  0  0
    2.4031   -2.7085    6.7549 H   0  0  0  0  0  0  0  0  0  0  0  0
    0.6650   -2.7178    7.1387 H   0  0  0  0  0  0  0  0  0  0  0  0
    2.7560   -6.7875    0.3909 H   0  0  0  0  0  0  0  0  0  0  0  0
    2.8761   -8.5628    0.3442 H   0  0  0  0  0  0  0  0  0  0  0  0
    2.5207   -8.5223   -2.1095 H   0  0  0  0  0  0  0  0  0  0  0  0
    2.4006   -6.7470   -2.0628 H   0  0  0  0  0  0  0  0  0  0  0  0
    4.7066   -6.6148   -1.1608 H   0  0  0  0  0  0  0  0  0  0  0  0
    4.8267   -8.3901   -1.2075 H   0  0  0  0  0  0  0  0  0  0  0  0
    5.7299   -7.3848   -3.1771 H   0  0  0  0  0  0  0  0  0  0  0  0
  1  2  1  0  0  0  0
  1 36  1  0  0  0  0
  1 37  1  0  0  0  0
  1 38  1  0  0  0  0
  2  3  1  0  0  0  0
  2 39  1  0  0  0  0
  2 40  1  0  0  0  0
  3  4  1  0  0  0  0
  4  9  2  0  0  0  0
  4  5  1  0  0  0  0
  5  6  2  0  0  0  0
  5 41  1  0  0  0  0
  6  7  1  0  0  0  0
  6 42  1  0  0  0  0
  7  8  2  0  0  0  0
  7 11  1  0  0  0  0
  8  9  1  0  0  0  0
  8 43  1  0  0  0  0
  9 10  1  0  0  0  0
 10 44  1  0  0  0  0
 10 45  1  0  0  0  0
 10 46  1  0  0  0  0
 11 12  2  0  0  0  0
 11 13  1  0  0  0  0
 13 18  1  0  0  0  0
 13 14  2  0  0  0  0
 14 15  1  0  0  0  0
 14 35  1  0  0  0  0
 15 16  2  0  0  0  0
 15 17  1  0  0  0  0
 17 18  1  0  0  0  0
 17 31  1  0  0  0  0
 18 19  1  6  0  0  0
 18 20  1  0  0  0  0
 20 25  2  0  0  0  0
 20 21  1  0  0  0  0
 21 22  2  0  0  0  0
 21 47  1  0  0  0  0
 22 23  1  0  0  0  0
 22 48  1  0  0  0  0
 23 24  2  0  0  0  0
 23 28  1  0  0  0  0
 24 25  1  0  0  0  0
 24 26  1  0  0  0  0
 25 49  1  0  0  0  0
 26 27  1  0  0  0  0
 27 50  1  0  0  0  0
 27 51  1  0  0  0  0
 27 52  1  0  0  0  0
 28 29  1  0  0  0  0
 29 30  1  0  0  0  0
 29 53  1  0  0  0  0
 29 54  1  0  0  0  0
 30 55  1  0  0  0  0
 30 56  1  0  0  0  0
 30 57  1  0  0  0  0
 31 32  1  0  0  0  0
 31 58  1  0  0  0  0
 31 59  1  0  0  0  0
 32 33  1  0  0  0  0
 32 60  1  0  0  0  0
 32 61  1  0  0  0  0
 33 34  1  0  0  0  0
 33 62  1  0  0  0  0
 33 63  1  0  0  0  0
 34 64  1  0  0  0  0
M  CHG  1  35  -1
M  END
$$$$
ZINC47152248
 OpenBabel01252620473D

 41 42  0  0  0  0  0  0  0  0999 V2000
    1.1903   -0.6406   -0.4093 C   0  0  0  0  0  0  0  0  0  0  0  0
    2.3638    0.0804   -0.4710 C   0  0  0  0  0  0  0  0  0  0  0  0
    2.3642    1.4348   -0.1855 C   0  0  0  0  0  0  0  0  0  0  0  0
    1.1885    2.0767    0.1635 C   0  0  0  0  0  0  0  0  0  0  0  0
    0.0065    1.3702    0.2298 C   0  0  0  0  0  0  0  0  0  0  0  0
   -0.0026    0.0007   -0.0573 C   0  0  0  0  0  0  0  0  0  0  0  0
   -1.2585   -0.7603    0.0105 C   0  0  0  0  0  0  0  0  0  0  0  0
   -1.2392   -2.1118   -0.0993 C   0  0  0  0  0  0  0  0  0  0  0  0
   -2.3640   -3.0639   -0.2199 C   0  0  0  0  0  0  0  0  0  0  0  0
   -3.5213   -2.6883   -0.2335 O   0  0  0  0  0  0  0  0  0  0  0  0
   -2.0476   -4.3445   -0.3126 N   0  0  0  0  0  0  0  0  0  0  0  0
   -0.7636   -4.7563   -0.2971 C   0  0  0  0  0  0  0  0  0  0  0  0
   -0.1585   -6.3542   -0.4050 S   0  0  0  0  0  0  0  0  0  0  0  0
    0.1534   -3.2317   -0.1460 S   0  0  0  0  0  0  0  0  0  0  0  0
   -3.1165   -5.3389   -0.4345 C   0  0  0  0  0  0  0  0  0  0  0  0
   -3.4341   -5.5675   -1.9136 C   0  0  0  0  0  0  0  0  0  0  0  0
   -4.5505   -6.6059   -2.0410 C   0  0  0  0  0  0  0  0  0  0  0  0
   -4.8633   -6.8311   -3.4978 C   0  0  0  0  0  0  0  0  0  0  0  0
   -4.2534   -6.2212   -4.3504 O   0  0  0  0  0  0  0  0  0  0  0  0
   -5.8209   -7.7104   -3.8534 N   0  0  0  0  0  0  0  0  0  0  0  0
   -6.1250   -7.9294   -5.2696 C   0  0  0  0  0  0  0  0  0  0  0  0
   -7.2246   -8.9522   -5.3950 C   0  0  0  0  0  0  0  0  0  0  0  0
   -7.7094   -9.4519   -4.3942 O   0  0  0  0  0  0  0  0  0  0  0  0
   -7.6295   -9.2799   -6.4974 O   0  0  0  0  0  1  0  0  0  0  0  0
    3.6290    2.2010   -0.2533 N   0  0  0  0  0  4  0  0  0  0  0  0
    4.6578    1.6436   -0.5574 O   0  0  0  0  0  0  0  0  0  0  0  0
    3.6331    3.3841   -0.0046 O   0  5  0  0  0  0  0  0  0  0  0  0
    1.1909   -1.6964   -0.6364 H   0  0  0  0  0  0  0  0  0  0  0  0
    3.2853   -0.4130   -0.7426 H   0  0  0  0  0  0  0  0  0  0  0  0
    1.1972    3.1337    0.3848 H   0  0  0  0  0  0  0  0  0  0  0  0
   -0.9099    1.8723    0.5026 H   0  0  0  0  0  0  0  0  0  0  0  0
   -2.1966   -0.2430    0.1477 H   0  0  0  0  0  0  0  0  0  0  0  0
   -2.7934   -6.2769    0.0169 H   0  0  0  0  0  0  0  0  0  0  0  0
   -4.0087   -4.9777    0.0770 H   0  0  0  0  0  0  0  0  0  0  0  0
   -3.7572   -4.6295   -2.3651 H   0  0  0  0  0  0  0  0  0  0  0  0
   -2.5419   -5.9286   -2.4252 H   0  0  0  0  0  0  0  0  0  0  0  0
   -4.2274   -7.5440   -1.5895 H   0  0  0  0  0  0  0  0  0  0  0  0
   -5.4427   -6.2448   -1.5294 H   0  0  0  0  0  0  0  0  0  0  0  0
   -6.3087   -8.1983   -3.1715 H   0  0  0  0  0  0  0  0  0  0  0  0
   -6.4481   -6.9913   -5.7211 H   0  0  0  0  0  0  0  0  0  0  0  0
   -5.2328   -8.2905   -5.7812 H   0  0  0  0  0  0  0  0  0  0  0  0
  1  6  2  0  0  0  0
  1  2  1  0  0  0  0
  1 28  1  0  0  0  0
  2  3  2  0  0  0  0
  2 29  1  0  0  0  0
  3  4  1  0  0  0  0
  3 25  1  0  0  0  0
  4  5  2  0  0  0  0
  4 30  1  0  0  0  0
  5  6  1  0  0  0  0
  5 31  1  0  0  0  0
  6  7  1  0  0  0  0
  7  8  2  0  0  0  0
  7 32  1  0  0  0  0
  8 14  1  0  0  0  0
  8  9  1  0  0  0  0
  9 10  2  0  0  0  0
  9 11  1  0  0  0  0
 11 12  1  0  0  0  0
 11 15  1  0  0  0  0
 12 13  2  0  0  0  0
 12 14  1  0  0  0  0
 15 16  1  0  0  0  0
 15 33  1  0  0  0  0
 15 34  1  0  0  0  0
 16 17  1  0  0  0  0
 16 35  1  0  0  0  0
 16 36  1  0  0  0  0
 17 18  1  0  0  0  0
 17 37  1  0  0  0  0
 17 38  1  0  0  0  0
 18 19  2  0  0  0  0
 18 20  1  0  0  0  0
 20 21  1  0  0  0  0
 20 39  1  0  0  0  0
 21 22  1  0  0  0  0
 21 40  1  0  0  0  0
 21 41  1  0  0  0  0
 22 23  2  0  0  0  0
 22 24  1  0  0  0  0
 25 26  2  0  0  0  0
 25 27  1  0  0  0  0
M  CHG  1  27  -1
M  END
$$$$
ZINC67313559
 OpenBabel01252620473D

 50 50  0  0  0  0  0  0  0  0999 V2000
   -0.0187    1.5258    0.0104 C   0  0  0  0  0  0  0  0  0  0  0  0
    0.0021   -0.0041    0.0020 C   0  0  0  0  0  0  0  0  0  0  0  0
    0.6932   -0.4774    1.1597 O   0  0  0  0  0  0  0  0  0  0  0  0
    0.7699   -1.9016    1.2491 C   0  0  0  0  0  0  0  0  0  0  0  0
    1.5265   -2.2929    2.5200 C   0  0  0  0  0  0  0  0  0  0  0  0
    1.6086   -3.8177    2.6157 C   0  0  0  0  0  0  0  0  0  0  0  0
    2.3330   -4.1923    3.8327 N   0  0  0  0  0  0  0  0  0  0  0  0
    2.5286   -5.4929    4.1270 C   0  0  0  0  0  0  0  0  0  0  0  0
    2.1038   -6.3553    3.3826 O   0  0  0  0  0  0  0  0  0  0  0  0
    3.1951   -5.8376    5.2466 N   0  0  0  0  0  0  0  0  0  0  0  0
    3.6846   -4.8439    6.1044 N   0  0  0  0  0  0  0  0  0  0  0  0
    4.3511   -5.1886    7.2240 C   0  0  0  0  0  0  0  0  0  0  0  0
    4.5275   -6.3616    7.4895 O   0  0  0  0  0  0  0  0  0  0  0  0
    4.8676   -4.1400    8.1292 C   0  0  0  0  0  0  0  0  0  0  0  0
    4.6618   -2.7922    7.8302 C   0  0  0  0  0  0  0  0  0  0  0  0
    5.1460   -1.8187    8.6794 C   0  0  0  0  0  0  0  0  0  0  0  0
    5.8343   -2.1759    9.8252 C   0  0  0  0  0  0  0  0  0  0  0  0
    6.0422   -3.5100   10.1272 C   0  0  0  0  0  0  0  0  0  0  0  0
    5.5583   -4.4935    9.2895 C   0  0  0  0  0  0  0  0  0  0  0  0
    6.4494   -0.9262   10.9043 S   0  0  0  0  0  0  0  0  0  0  0  0
    7.5295   -1.5058   11.6231 O   0  0  0  0  0  0  0  0  0  0  0  0
    6.5998    0.2494   10.1203 O   0  0  0  0  0  0  0  0  0  0  0  0
    5.2606   -0.6073   12.0122 N   0  0  0  0  0  0  0  0  0  0  0  0
    4.8489   -1.6428   12.9633 C   0  0  0  0  0  0  0  0  0  0  0  0
    4.0344   -1.0051   14.0905 C   0  0  0  0  0  0  0  0  0  0  0  0
    3.6207   -2.0455   15.0462 C   0  0  0  0  0  0  0  0  0  0  0  0
    3.3015   -2.8484   15.7837 N   0  0  0  0  0  0  0  0  0  0  0  0
    1.0039    1.9031    0.0027 H   0  0  0  0  0  0  0  0  0  0  0  0
   -0.5459    1.8868   -0.8726 H   0  0  0  0  0  0  0  0  0  0  0  0
   -0.5289    1.8773    0.9072 H   0  0  0  0  0  0  0  0  0  0  0  0
   -1.0205   -0.3814    0.0098 H   0  0  0  0  0  0  0  0  0  0  0  0
    0.5123   -0.3556   -0.8948 H   0  0  0  0  0  0  0  0  0  0  0  0
   -0.2368   -2.3182    1.2827 H   0  0  0  0  0  0  0  0  0  0  0  0
    1.2960   -2.2925    0.3781 H   0  0  0  0  0  0  0  0  0  0  0  0
    2.5331   -1.8762    2.4864 H   0  0  0  0  0  0  0  0  0  0  0  0
    1.0004   -1.9020    3.3909 H   0  0  0  0  0  0  0  0  0  0  0  0
    0.6019   -4.2343    2.6493 H   0  0  0  0  0  0  0  0  0  0  0  0
    2.1347   -4.2086    1.7448 H   0  0  0  0  0  0  0  0  0  0  0  0
    2.6719   -3.5043    4.4266 H   0  0  0  0  0  0  0  0  0  0  0  0
    3.3359   -6.7736    5.4585 H   0  0  0  0  0  0  0  0  0  0  0  0
    3.5438   -3.9079    5.8925 H   0  0  0  0  0  0  0  0  0  0  0  0
    4.1249   -2.5121    6.9359 H   0  0  0  0  0  0  0  0  0  0  0  0
    4.9877   -0.7755    8.4490 H   0  0  0  0  0  0  0  0  0  0  0  0
    6.5810   -3.7821   11.0228 H   0  0  0  0  0  0  0  0  0  0  0  0
    5.7173   -5.5346    9.5286 H   0  0  0  0  0  0  0  0  0  0  0  0
    4.8369    0.2650   12.0314 H   0  0  0  0  0  0  0  0  0  0  0  0
    4.2389   -2.3860   12.4498 H   0  0  0  0  0  0  0  0  0  0  0  0
    5.7329   -2.1244   13.3813 H   0  0  0  0  0  0  0  0  0  0  0  0
    4.6444   -0.2619   14.6040 H   0  0  0  0  0  0  0  0  0  0  0  0
    3.1504   -0.5235   13.6725 H   0  0  0  0  0  0  0  0  0  0  0  0
  1  2  1  0  0  0  0
  1 28  1  0  0  0  0
  1 29  1  0  0  0  0
  1 30  1  0  0  0  0
  2  3  1  0  0  0  0
  2 31  1  0  0  0  0
  2 32  1  0  0  0  0
  3  4  1  0  0  0  0
  4  5  1  0  0  0  0
  4 33  1  0  0  0  0
  4 34  1  0  0  0  0
  5  6  1  0  0  0  0
  5 35  1  0  0  0  0
  5 36  1  0  0  0  0
  6  7  1  0  0  0  0
  6 37  1  0  0  0  0
  6 38  1  0  0  0  0
  7  8  1  0  0  0  0
  7 39  1  0  0  0  0
  8  9  2  0  0  0  0
  8 10  1  0  0  0  0
 10 11  1  0  0  0  0
 10 40  1  0  0  0  0
 11 12  1  0  0  0  0
 11 41  1  0  0  0  0
 12 13  2  0  0  0  0
 12 14  1  0  0  0  0
 14 19  2  0  0  0  0
 14 15  1  0  0  0  0
 15 16  2  0  0  0  0
 15 42  1  0  0  0  0
 16 17  1  0  0  0  0
 16 43  1  0  0  0  0
 17 18  2  0  0  0  0
 17 20  1  0  0  0  0
 18 19  1  0  0  0  0
 18 44  1  0  0  0  0
 19 45  1  0  0  0  0
 20 21  2  0  0  0  0
 20 22  2  0  0  0  0
 20 23  1  0  0  0  0
 23 24  1  0  0  0  0
 23 46  1  0  0  0  0
 24 25  1  0  0  0  0
 24 47  1  0  0  0  0
 24 48  1  0  0  0  0
 25 26  1  0  0  0  0
 25 49  1  0  0  0  0
 25 50  1  0  0  0  0
 26 27  3  0  0  0  0
M  END
$$$$
ZINC35898097
 OpenBabel01252620473D

 49 52  0  0  1  0  0  0  0  0999 V2000
   -0.0016    1.5194   -0.2275 C   0  0  0  0  0  0  0  0  0  0  0  0
    0.0145   -0.0100   -0.1872 C   0  0  0  0  0  0  0  0  0  0  0  0
    0.7440   -0.5450   -1.4210 C   0  0  0  0  0  0  0  0  0  0  0  0
    0.7590   -1.9735   -1.3834 O   0  0  0  0  0  0  0  0  0  0  0  0
    1.3688   -2.6066   -2.4065 C   0  0  0  0  0  0  0  0  0  0  0  0
    1.8740   -1.9622   -3.3060 O   0  0  0  0  0  0  0  0  0  0  0  0
    1.4226   -4.0697   -2.4342 C   0  0  0  0  0  0  0  0  0  0  0  0
    0.3737   -4.8582   -3.0798 C   0  0  0  0  0  0  0  0  0  0  0  0
    0.5696   -6.1872   -3.0173 C   0  0  0  0  0  0  0  0  0  0  0  0
    2.0970   -6.3743   -2.1330 S   0  0  0  0  0  0  0  0  0  0  0  0
    2.4709   -4.7631   -1.8558 C   0  0  0  0  0  0  0  0  0  0  0  0
    3.5749   -4.2454   -1.1968 N   0  0  0  0  0  0  0  0  0  0  0  0
    4.5080   -5.0756   -0.6904 C   0  0  0  0  0  0  0  0  0  0  0  0
    4.3350   -6.2755   -0.7248 O   0  0  0  0  0  0  0  0  0  0  0  0
    5.7664   -4.5130   -0.0813 C   0  0  2  0  0  0  0  0  0  0  0  0
    6.2899   -3.8826   -0.8001 H   0  0  0  0  0  0  0  0  0  0  0  0
    6.6962   -5.6639    0.4193 C   0  0  1  0  0  0  0  0  0  0  0  0
    7.2781   -6.1809   -0.3438 H   0  0  0  0  0  0  0  0  0  0  0  0
    7.5084   -4.9081    1.5338 C   0  0  0  0  0  0  0  0  0  0  0  0
    6.2136   -4.4913    2.3230 C   0  0  1  0  0  0  0  0  0  0  0  0
    6.3640   -3.9720    3.2695 H   0  0  0  0  0  0  0  0  0  0  0  0
    5.4392   -3.7159    1.2051 C   0  0  2  0  0  0  0  0  0  0  0  0
    5.8032   -2.6916    1.1241 H   0  0  0  0  0  0  0  0  0  0  0  0
    3.9570   -3.7330    1.4763 C   0  0  0  0  0  0  0  0  0  0  0  0
    3.3941   -4.7865    1.7210 O   0  0  0  0  0  0  0  0  0  0  0  0
    3.3206   -2.6933    1.4512 O   0  0  0  0  0  1  0  0  0  0  0  0
    5.5048   -5.8492    2.3973 C   0  0  0  0  0  0  0  0  0  0  0  0
    5.7773   -6.5373    1.2821 C   0  0  0  0  0  0  0  0  0  0  0  0
   -0.5386   -6.9498   -3.6916 C   0  0  0  0  0  0  0  0  0  0  0  0
   -1.6914   -5.9297   -3.8217 C   0  0  0  0  0  0  0  0  0  0  0  0
   -0.9268   -4.5905   -3.8343 C   0  0  0  0  0  0  0  0  0  0  0  0
    1.0222    1.8934   -0.2349 H   0  0  0  0  0  0  0  0  0  0  0  0
   -0.5171    1.8537   -1.1278 H   0  0  0  0  0  0  0  0  0  0  0  0
   -0.5213    1.9005    0.6516 H   0  0  0  0  0  0  0  0  0  0  0  0
    0.5300   -0.3443    0.7131 H   0  0  0  0  0  0  0  0  0  0  0  0
   -1.0093   -0.3841   -0.1797 H   0  0  0  0  0  0  0  0  0  0  0  0
    0.2285   -0.2107   -2.3213 H   0  0  0  0  0  0  0  0  0  0  0  0
    1.7678   -0.1710   -1.4285 H   0  0  0  0  0  0  0  0  0  0  0  0
    3.6759   -3.2855   -1.1001 H   0  0  0  0  0  0  0  0  0  0  0  0
    8.1505   -5.5760    2.1080 H   0  0  0  0  0  0  0  0  0  0  0  0
    8.0538   -4.0491    1.1430 H   0  0  0  0  0  0  0  0  0  0  0  0
    4.8831   -6.1935    3.2105 H   0  0  0  0  0  0  0  0  0  0  0  0
    5.4298   -7.5286    1.0311 H   0  0  0  0  0  0  0  0  0  0  0  0
   -0.2204   -7.2912   -4.6766 H   0  0  0  0  0  0  0  0  0  0  0  0
   -0.8470   -7.7953   -3.0767 H   0  0  0  0  0  0  0  0  0  0  0  0
   -2.2380   -6.0755   -4.7534 H   0  0  0  0  0  0  0  0  0  0  0  0
   -2.3622   -5.9877   -2.9645 H   0  0  0  0  0  0  0  0  0  0  0  0
   -1.5065   -3.8202   -3.3257 H   0  0  0  0  0  0  0  0  0  0  0  0
   -0.7129   -4.2877   -4.8594 H   0  0  0  0  0  0  0  0  0  0  0  0
  1  2  1  0  0  0  0
  1 32  1  0  0  0  0
  1 33  1  0  0  0  0
  1 34  1  0  0  0  0
  2  3  1  0  0  0  0
  2 35  1  0  0  0  0
  2 36  1  0  0  0  0
  3  4  1  0  0  0  0
  3 37  1  0  0  0  0
  3 38  1  0  0  0  0
  4  5  1  0  0  0  0
  5  6  2  0  0  0  0
  5  7  1  0  0  0  0
  7 11  2  0  0  0  0
  7  8  1  0  0  0  0
  8 31  1  0  0  0  0
  8  9  2  0  0  0  0
  9 10  1  0  0  0  0
  9 29  1  0  0  0  0
 10 11  1  0  0  0  0
 11 12  1  0  0  0  0
 12 13  1  0  0  0  0
 12 39  1  0  0  0  0
 13 14  2  0  0  0  0
 13 15  1  0  0  0  0
 15 16  1  6  0  0  0
 15 22  1  0  0  0  0
 15 17  1  0  0  0  0
 17 18  1  6  0  0  0
 17 28  1  0  0  0  0
 17 19  1  0  0  0  0
 19 20  1  0  0  0  0
 19 40  1  0  0  0  0
 19 41  1  0  0  0  0
 20 21  1  1  0  0  0
 20 22  1  0  0  0  0
 20 27  1  0  0  0  0
 22 23  1  6  0  0  0
 22 24  1  0  0  0  0
 24 25  2  0  0  0  0
 24 26  1  0  0  0  0
 27 28  2  0  0  0  0
 27 42  1  0  0  0  0
 28 43  1  0  0  0  0
 29 30  1  0  0  0  0
 29 44  1  0  0  0  0
 29 45  1  0  0  0  0
 30 31  1  0  0  0  0
 30 46  1  0  0  0  0
 30 47  1  0  0  0  0
 31 48  1  0  0  0  0
 31 49  1  0  0  0  0
M  END
$$$$
ZINC47318172
 OpenBabel01252620473D

 33 34  0  0  0  0  0  0  0  0999 V2000
   -0.0167    1.3779    0.0096 C   0  0  0  0  0  0  0  0  0  0  0  0
    1.1711    2.0854    0.0021 C   0  0  0  0  0  0  0  0  0  0  0  0
    2.3773    1.4107   -0.0130 C   0  0  0  0  0  0  0  0  0  0  0  0
    2.3960    0.0283   -0.0201 C   0  0  0  0  0  0  0  0  0  0  0  0
    1.2086   -0.6790   -0.0117 C   0  0  0  0  0  0  0  0  0  0  0  0
    0.0021   -0.0041    0.0020 C   0  0  0  0  0  0  0  0  0  0  0  0
    1.2325   -2.4408   -0.0219 S   0  0  0  0  0  0  0  0  0  0  0  0
   -0.0129   -2.8607   -0.5621 O   0  0  0  0  0  0  0  0  0  0  0  0
    2.4774   -2.8268   -0.5880 O   0  0  0  0  0  0  0  0  0  0  0  0
    1.2558   -2.9393    1.5571 N   0  0  0  0  0  2  0  0  0  0  0  0
    1.2775   -4.3040    1.8590 C   0  0  0  0  0  0  0  0  0  0  0  0
    1.2854   -5.2426    0.8328 C   0  0  0  0  0  0  0  0  0  0  0  0
    1.3069   -6.5930    1.1241 C   0  0  0  0  0  0  0  0  0  0  0  0
    1.3206   -7.0211    2.4375 C   0  0  0  0  0  0  0  0  0  0  0  0
    1.3133   -6.0855    3.4768 C   0  0  0  0  0  0  0  0  0  0  0  0
    1.2969   -4.7205    3.1801 C   0  0  0  0  0  0  0  0  0  0  0  0
    1.3275   -6.5379    4.8803 C   0  0  0  0  0  0  0  0  0  0  0  0
    1.3210   -5.7175    5.7873 O   0  0  0  0  0  0  0  0  0  0  0  0
    1.3457   -7.7335    5.1373 O   0  0  0  0  0  1  0  0  0  0  0  0
    1.3464   -8.7192    2.7975 Cl  0  0  0  0  0  0  0  0  0  0  0  0
    3.8911    2.3124   -0.0238 S   0  0  0  0  0  0  0  0  0  0  0  0
    4.8717    1.4529   -0.5884 O   0  0  0  0  0  0  0  0  0  0  0  0
    3.5973    3.5927   -0.5658 O   0  0  0  0  0  0  0  0  0  0  0  0
    4.3274    2.5556    1.5551 N   0  0  0  0  0  0  0  0  0  0  0  0
   -0.9591    1.9051    0.0259 H   0  0  0  0  0  0  0  0  0  0  0  0
    1.1565    3.1653    0.0076 H   0  0  0  0  0  0  0  0  0  0  0  0
    3.3385   -0.4989   -0.0326 H   0  0  0  0  0  0  0  0  0  0  0  0
   -0.9258   -0.5567    0.0079 H   0  0  0  0  0  0  0  0  0  0  0  0
    1.2744   -4.9145   -0.1962 H   0  0  0  0  0  0  0  0  0  0  0  0
    1.3125   -7.3165    0.3222 H   0  0  0  0  0  0  0  0  0  0  0  0
    1.2950   -3.9925    3.9778 H   0  0  0  0  0  0  0  0  0  0  0  0
    5.2650    2.6226    1.7943 H   0  0  0  0  0  0  0  0  0  0  0  0
    3.6453    2.6310    2.2406 H   0  0  0  0  0  0  0  0  0  0  0  0
  1  6  2  0  0  0  0
  1  2  1  0  0  0  0
  1 25  1  0  0  0  0
  2  3  2  0  0  0  0
  2 26  1  0  0  0  0
  3  4  1  0  0  0  0
  3 21  1  0  0  0  0
  4  5  2  0  0  0  0
  4 27  1  0  0  0  0
  5  6  1  0  0  0  0
  5  7  1  0  0  0  0
  6 28  1  0  0  0  0
  7  8  2  0  0  0  0
  7  9  2  0  0  0  0
  7 10  1  0  0  0  0
 10 11  1  0  0  0  0
 11 16  2  0  0  0  0
 11 12  1  0  0  0  0
 12 13  2  0  0  0  0
 12 29  1  0  0  0  0
 13 14  1  0  0  0  0
 13 30  1  0  0  0  0
 14 15  2  0  0  0  0
 14 20  1  0  0  0  0
 15 16  1  0  0  0  0
 15 17  1  0  0  0  0
 16 31  1  0  0  0  0
 17 18  2  0  0  0  0
 17 19  1  0  0  0  0
 21 22  2  0  0  0  0
 21 23  2  0  0  0  0
 21 24  1  0  0  0  0
 24 32  1  0  0  0  0
 24 33  1  0  0  0  0
M  END
$$$$
ZINC32857725
 OpenBabel01252620473D

 46 48  0  0  1  0  0  0  0  0999 V2000
   -0.0187    1.5258    0.0104 C   0  0  0  0  0  0  0  0  0  0  0  0
    0.0021   -0.0041    0.0020 C   0  0  2  0  0  0  0  0  0  0  0  0
   -1.0205   -0.3814    0.0098 H   0  0  0  0  0  0  0  0  0  0  0  0
    0.7309   -0.5033    1.2229 C   0  0  0  0  0  0  0  0  0  0  0  0
    1.8867   -0.8613    1.1352 O   0  0  0  0  0  0  0  0  0  0  0  0
    0.0426   -0.5563    2.5179 C   0  0  0  0  0  0  0  0  0  0  0  0
   -1.2940   -0.1487    2.6203 C   0  0  0  0  0  0  0  0  0  0  0  0
   -1.9308   -0.2000    3.8270 C   0  0  0  0  0  0  0  0  0  0  0  0
   -1.2535   -0.6569    4.9555 C   0  0  0  0  0  0  0  0  0  0  0  0
    0.0755   -1.0631    4.8582 C   0  0  0  0  0  0  0  0  0  0  0  0
    0.7183   -1.0201    3.6543 C   0  0  0  0  0  0  0  0  0  0  0  0
   -1.9050   -0.7070    6.1811 N   0  0  0  0  0  2  0  0  0  0  0  0
   -1.1021   -1.2497    7.5239 S   0  0  0  0  0  0  0  0  0  0  0  0
   -0.8015   -2.6096    7.2418 O   0  0  0  0  0  0  0  0  0  0  0  0
   -0.0606   -0.3053    7.7300 O   0  0  0  0  0  0  0  0  0  0  0  0
   -2.3163   -1.1439    8.8675 C   0  0  0  0  0  0  0  0  0  0  0  0
    0.6709   -0.4649   -1.1737 O   0  0  0  0  0  0  0  0  0  0  0  0
   -0.0852   -0.6723   -2.2632 C   0  0  0  0  0  0  0  0  0  0  0  0
   -1.2755   -0.4693   -2.2201 O   0  0  0  0  0  0  0  0  0  0  0  0
    0.5506   -1.1584   -3.5402 C   0  0  0  0  0  0  0  0  0  0  0  0
   -0.7233   -1.3401   -4.8188 S   0  0  0  0  0  0  0  0  0  0  0  0
    0.1668   -1.9071   -6.2298 C   0  0  0  0  0  0  0  0  0  0  0  0
    1.4523   -2.1544   -6.3490 N   0  0  0  0  0  0  0  0  0  0  0  0
    2.0028   -2.5895   -7.5034 C   0  0  0  0  0  0  0  0  0  0  0  0
    3.3596   -2.8903   -7.7642 C   0  0  0  0  0  0  0  0  0  0  0  0
    3.7551   -3.3244   -9.0026 C   0  0  0  0  0  0  0  0  0  0  0  0
    2.8469   -3.4836  -10.0390 C   0  0  0  0  0  0  0  0  0  0  0  0
    1.5114   -3.1985   -9.8190 C   0  0  0  0  0  0  0  0  0  0  0  0
    1.1064   -2.7637   -8.5822 C   0  0  0  0  0  0  0  0  0  0  0  0
   -0.4496   -2.2999   -7.8607 S   0  0  0  0  0  0  0  0  0  0  0  0
    1.0039    1.9031    0.0027 H   0  0  0  0  0  0  0  0  0  0  0  0
   -0.5459    1.8868   -0.8726 H   0  0  0  0  0  0  0  0  0  0  0  0
   -0.5289    1.8773    0.9072 H   0  0  0  0  0  0  0  0  0  0  0  0
   -1.8197    0.2060    1.7460 H   0  0  0  0  0  0  0  0  0  0  0  0
   -2.9610    0.1143    3.9069 H   0  0  0  0  0  0  0  0  0  0  0  0
    0.5970   -1.4163    5.7355 H   0  0  0  0  0  0  0  0  0  0  0  0
    1.7473   -1.3394    3.5789 H   0  0  0  0  0  0  0  0  0  0  0  0
   -3.1758   -1.7710    8.6307 H   0  0  0  0  0  0  0  0  0  0  0  0
   -1.8611   -1.4871    9.7965 H   0  0  0  0  0  0  0  0  0  0  0  0
   -2.6417   -0.1100    8.9826 H   0  0  0  0  0  0  0  0  0  0  0  0
    1.2977   -0.4372   -3.8715 H   0  0  0  0  0  0  0  0  0  0  0  0
    1.0287   -2.1220   -3.3641 H   0  0  0  0  0  0  0  0  0  0  0  0
    4.0923   -2.7763   -6.9790 H   0  0  0  0  0  0  0  0  0  0  0  0
    4.7976   -3.5474   -9.1755 H   0  0  0  0  0  0  0  0  0  0  0  0
    3.1792   -3.8263  -11.0078 H   0  0  0  0  0  0  0  0  0  0  0  0
    0.7921   -3.3170  -10.6157 H   0  0  0  0  0  0  0  0  0  0  0  0
  1  2  1  0  0  0  0
  1 31  1  0  0  0  0
  1 32  1  0  0  0  0
  1 33  1  0  0  0  0
  2  3  1  1  0  0  0
  2  4  1  0  0  0  0
  2 17  1  0  0  0  0
  4  5  2  0  0  0  0
  4  6  1  0  0  0  0
  6 11  2  0  0  0  0
  6  7  1  0  0  0  0
  7  8  2  0  0  0  0
  7 34  1  0  0  0  0
  8  9  1  0  0  0  0
  8 35  1  0  0  0  0
  9 10  2  0  0  0  0
  9 12  1  0  0  0  0
 10 11  1  0  0  0  0
 10 36  1  0  0  0  0
 11 37  1  0  0  0  0
 12 13  1  0  0  0  0
 13 14  2  0  0  0  0
 13 15  2  0  0  0  0
 13 16  1  0  0  0  0
 16 38  1  0  0  0  0
 16 39  1  0  0  0  0
 16 40  1  0  0  0  0
 17 18  1  0  0  0  0
 18 19  2  0  0  0  0
 18 20  1  0  0  0  0
 20 21  1  0  0  0  0
 20 41  1  0  0  0  0
 20 42  1  0  0  0  0
 21 22  1  0  0  0  0
 22 30  1  0  0  0  0
 22 23  2  0  0  0  0
 23 24  1  0  0  0  0
 24 29  2  0  0  0  0
 24 25  1  0  0  0  0
 25 26  2  0  0  0  0
 25 43  1  0  0  0  0
 26 27  1  0  0  0  0
 26 44  1  0  0  0  0
 27 28  2  0  0  0  0
 27 45  1  0  0  0  0
 28 29  1  0  0  0  0
 28 46  1  0  0  0  0
 29 30  1  0  0  0  0
M  END
$$$$
ZINC13277726
 OpenBabel01252620473D

 47 50  0  0  0  0  0  0  0  0999 V2000
   -0.0167    1.3781    0.0096 C   0  0  0  0  0  0  0  0  0  0  0  0
    1.1709    2.0855    0.0021 C   0  0  0  0  0  0  0  0  0  0  0  0
    2.3773    1.4107   -0.0130 C   0  0  0  0  0  0  0  0  0  0  0  0
    2.3960    0.0285   -0.0201 C   0  0  0  0  0  0  0  0  0  0  0  0
    1.2084   -0.6789   -0.0117 C   0  0  0  0  0  0  0  0  0  0  0  0
    0.0021   -0.0041    0.0020 C   0  0  0  0  0  0  0  0  0  0  0  0
    3.7112   -0.7071   -0.0376 C   0  0  0  0  0  0  0  0  0  0  0  0
    4.1518   -0.9524    1.3379 N   0  0  0  0  0  0  0  0  0  0  0  0
    4.9278   -0.1367    2.1143 C   0  0  0  0  0  0  0  0  0  0  0  0
    5.0820   -0.7282    3.2649 N   0  0  0  0  0  0  0  0  0  0  0  0
    4.4612   -1.8536    3.2692 N   0  0  0  0  0  0  0  0  0  0  0  0
    3.8681   -2.0401    2.1129 C   0  0  0  0  0  0  0  0  0  0  0  0
    2.8931   -3.4322    1.6480 S   0  0  0  0  0  0  0  0  0  0  0  0
    2.9156   -4.4944    3.1183 C   0  0  0  0  0  0  0  0  0  0  0  0
    2.1071   -5.7380    2.8519 C   0  0  0  0  0  0  0  0  0  0  0  0
    1.9995   -6.6611    3.8428 N   0  0  0  0  0  0  0  0  0  0  0  0
    2.4389   -6.5063    4.6936 H   0  0  0  0  0  0  0  0  0  0  0  0
    1.2845   -7.7945    3.6541 C   0  0  0  0  0  0  0  0  0  0  0  0
    1.1794   -8.6295    4.5331 O   0  0  0  0  0  0  0  0  0  0  0  0
    0.6378   -7.9779    2.3430 C   0  0  0  0  0  0  0  0  0  0  0  0
   -0.1202   -9.1102    2.0505 C   0  0  0  0  0  0  0  0  0  0  0  0
   -0.7029   -9.2398    0.8220 C   0  0  0  0  0  0  0  0  0  0  0  0
   -0.5458   -8.2430   -0.1499 C   0  0  0  0  0  0  0  0  0  0  0  0
    0.2069   -7.1058    0.1222 C   0  0  0  0  0  0  0  0  0  0  0  0
    0.8063   -6.9636    1.3752 C   0  0  0  0  0  0  0  0  0  0  0  0
    1.5450   -5.8698    1.6891 N   0  0  0  0  0  0  0  0  0  0  0  0
   -1.1842   -8.4013   -1.4736 C   0  0  0  0  0  0  0  0  0  0  0  0
   -1.8466   -9.3995   -1.7173 O   0  0  0  0  0  0  0  0  0  0  0  0
   -1.0499   -7.5340   -2.3247 O   0  0  0  0  0  1  0  0  0  0  0  0
    5.4992    1.1988    1.7130 C   0  0  0  0  0  0  0  0  0  0  0  0
    4.5222    2.2901    2.0673 C   0  0  0  0  0  0  0  0  0  0  0  0
    3.4603    2.0095    2.5966 O   0  0  0  0  0  0  0  0  0  0  0  0
    4.7937    3.4537    1.8247 O   0  0  0  0  0  1  0  0  0  0  0  0
   -0.9591    1.9053    0.0259 H   0  0  0  0  0  0  0  0  0  0  0  0
    1.1563    3.1654    0.0076 H   0  0  0  0  0  0  0  0  0  0  0  0
    3.3051    1.9634   -0.0196 H   0  0  0  0  0  0  0  0  0  0  0  0
    1.2231   -1.7588   -0.0176 H   0  0  0  0  0  0  0  0  0  0  0  0
   -0.9258   -0.5567    0.0082 H   0  0  0  0  0  0  0  0  0  0  0  0
    3.5884   -1.6586   -0.5549 H   0  0  0  0  0  0  0  0  0  0  0  0
    4.4573   -0.1052   -0.5563 H   0  0  0  0  0  0  0  0  0  0  0  0
    3.9438   -4.7722    3.3501 H   0  0  0  0  0  0  0  0  0  0  0  0
    2.4856   -3.9555    3.9625 H   0  0  0  0  0  0  0  0  0  0  0  0
   -0.2463   -9.8837    2.7935 H   0  0  0  0  0  0  0  0  0  0  0  0
   -1.2896  -10.1184    0.5977 H   0  0  0  0  0  0  0  0  0  0  0  0
    0.3269   -6.3393   -0.6292 H   0  0  0  0  0  0  0  0  0  0  0  0
    6.4379    1.3659    2.2414 H   0  0  0  0  0  0  0  0  0  0  0  0
    5.6806    1.2083    0.6383 H   0  0  0  0  0  0  0  0  0  0  0  0
  1  6  2  0  0  0  0
  1  2  1  0  0  0  0
  1 34  1  0  0  0  0
  2  3  2  0  0  0  0
  2 35  1  0  0  0  0
  3  4  1  0  0  0  0
  3 36  1  0  0  0  0
  4  5  2  0  0  0  0
  4  7  1  0  0  0  0
  5  6  1  0  0  0  0
  5 37  1  0  0  0  0
  6 38  1  0  0  0  0
  7  8  1  0  0  0  0
  7 39  1  0  0  0  0
  7 40  1  0  0  0  0
  8 12  1  0  0  0  0
  8  9  1  0  0  0  0
  9 10  2  0  0  0  0
  9 30  1  0  0  0  0
 10 11  1  0  0  0  0
 11 12  2  0  0  0  0
 12 13  1  0  0  0  0
 13 14  1  0  0  0  0
 14 15  1  0  0  0  0
 14 41  1  0  0  0  0
 14 42  1  0  0  0  0
 15 26  2  0  0  0  0
 15 16  1  0  0  0  0
 16 17  1  0  0  0  0
 16 18  1  0  0  0  0
 18 19  2  0  0  0  0
 18 20  1  0  0  0  0
 20 25  2  0  0  0  0
 20 21  1  0  0  0  0
 21 22  2  0  0  0  0
 21 43  1  0  0  0  0
 22 23  1  0  0  0  0
 22 44  1  0  0  0  0
 23 24  2  0  0  0  0
 23 27  1  0  0  0  0
 24 25  1  0  0  0  0
 24 45  1  0  0  0  0
 25 26  1  0  0  0  0
 27 28  2  0  0  0  0
 27 29  1  0  0  0  0
 30 31  1  0  0  0  0
 30 46  1  0  0  0  0
 30 47  1  0  0  0  0
 31 32  2  0  0  0  0
 31 33  1  0  0  0  0
M  END
$$$$
ZINC04014621
 OpenBabel01252620473D

 62 66  0  0  1  0  0  0  0  0999 V2000
   -0.0184    1.5028    0.0103 C   0  0  0  0  0  0  0  0  0  0  0  0
    0.0021   -0.0041    0.0020 C   0  0  0  0  0  0  0  0  0  0  0  0
   -1.0783   -0.8055    0.0027 C   0  0  0  0  0  0  0  0  0  0  0  0
   -0.6011   -2.1363   -0.0068 C   0  0  0  0  0  0  0  0  0  0  0  0
    0.7423   -2.0686   -0.0126 C   0  0  0  0  0  0  0  0  0  0  0  0
    1.1020   -0.7746   -0.0131 O   0  0  0  0  0  0  0  0  0  0  0  0
    1.6840   -3.2450   -0.0226 C   0  0  1  0  0  0  0  0  0  0  0  0
    1.1038   -4.1678   -0.0244 H   0  0  0  0  0  0  0  0  0  0  0  0
    2.5314   -3.1905   -1.2689 C   0  0  0  0  0  0  0  0  0  0  0  0
    3.8106   -2.7628   -1.2148 C   0  0  0  0  0  0  0  0  0  0  0  0
    4.6601   -2.6936   -2.4595 C   0  0  0  0  0  0  0  0  0  0  0  0
    4.2250   -3.7847   -3.4402 C   0  0  1  0  0  0  0  0  0  0  0  0
    4.3702   -4.7647   -2.9857 H   0  0  0  0  0  0  0  0  0  0  0  0
    2.7413   -3.5829   -3.7654 C   0  0  0  0  0  0  0  0  0  0  0  0
    1.9532   -3.5977   -2.4840 C   0  0  0  0  0  0  0  0  0  0  0  0
    0.7961   -3.9681   -2.4995 O   0  0  0  0  0  0  0  0  0  0  0  0
    5.0420   -3.6860   -4.7026 C   0  0  0  0  0  0  0  0  0  0  0  0
    5.0136   -2.5264   -5.4548 C   0  0  0  0  0  0  0  0  0  0  0  0
    5.7629   -2.4346   -6.6125 C   0  0  0  0  0  0  0  0  0  0  0  0
    6.5422   -3.5045   -7.0188 C   0  0  0  0  0  0  0  0  0  0  0  0
    6.5698   -4.6653   -6.2646 C   0  0  0  0  0  0  0  0  0  0  0  0
    5.8239   -4.7529   -5.1046 C   0  0  0  0  0  0  0  0  0  0  0  0
    7.2747   -3.4159   -8.1505 F   0  0  0  0  0  0  0  0  0  0  0  0
    4.3666   -2.3838   -0.0224 N   0  0  0  0  0  0  0  0  0  0  0  0
    3.8131   -2.7815    1.1624 C   0  0  0  0  0  0  0  0  0  0  0  0
    2.5385   -3.2027    1.2102 C   0  0  0  0  0  0  0  0  0  0  0  0
    1.9916   -3.6150    2.4478 C   0  0  0  0  0  0  0  0  0  0  0  0
    2.6743   -3.5853    3.4547 O   0  0  0  0  0  0  0  0  0  0  0  0
    0.7128   -4.0412    2.5120 O   0  0  0  0  0  0  0  0  0  0  0  0
    0.2263   -4.4425    3.7943 C   0  0  0  0  0  0  0  0  0  0  0  0
   -1.2312   -4.8906    3.6694 C   0  0  2  0  0  0  0  0  0  0  0  0
   -1.8212   -4.1031    3.2006 H   0  0  0  0  0  0  0  0  0  0  0  0
   -1.8023   -5.2110    5.0674 C   0  0  0  0  0  0  0  0  0  0  0  0
   -2.6721   -6.4670    4.7883 C   0  0  0  0  0  0  0  0  0  0  0  0
   -1.8410   -7.1597    3.6791 C   0  0  0  0  0  0  0  0  0  0  0  0
   -1.3063   -6.0866    2.8846 O   0  0  0  0  0  0  0  0  0  0  0  0
    4.6382   -2.7465    2.4230 C   0  0  0  0  0  0  0  0  0  0  0  0
    1.0042    1.8801    0.0026 H   0  0  0  0  0  0  0  0  0  0  0  0
   -0.5455    1.8639   -0.8728 H   0  0  0  0  0  0  0  0  0  0  0  0
   -0.5286    1.8543    0.9071 H   0  0  0  0  0  0  0  0  0  0  0  0
   -2.1119   -0.4924    0.0097 H   0  0  0  0  0  0  0  0  0  0  0  0
   -1.2002   -3.0349   -0.0086 H   0  0  0  0  0  0  0  0  0  0  0  0
    4.5397   -1.7164   -2.9271 H   0  0  0  0  0  0  0  0  0  0  0  0
    5.7067   -2.8414   -2.1932 H   0  0  0  0  0  0  0  0  0  0  0  0
    2.6047   -2.6247   -4.2667 H   0  0  0  0  0  0  0  0  0  0  0  0
    2.3973   -4.3882   -4.4145 H   0  0  0  0  0  0  0  0  0  0  0  0
    4.4054   -1.6922   -5.1379 H   0  0  0  0  0  0  0  0  0  0  0  0
    5.7402   -1.5287   -7.2001 H   0  0  0  0  0  0  0  0  0  0  0  0
    7.1771   -5.5006   -6.5808 H   0  0  0  0  0  0  0  0  0  0  0  0
    5.8488   -5.6567   -4.5137 H   0  0  0  0  0  0  0  0  0  0  0  0
    5.1614   -1.8277   -0.0184 H   0  0  0  0  0  0  0  0  0  0  0  0
    0.8297   -5.2691    4.1695 H   0  0  0  0  0  0  0  0  0  0  0  0
    0.2902   -3.6027    4.4862 H   0  0  0  0  0  0  0  0  0  0  0  0
   -1.0015   -5.4421    5.7699 H   0  0  0  0  0  0  0  0  0  0  0  0
   -2.4158   -4.3880    5.4339 H   0  0  0  0  0  0  0  0  0  0  0  0
   -2.7475   -7.0975    5.6742 H   0  0  0  0  0  0  0  0  0  0  0  0
   -3.6599   -6.1873    4.4222 H   0  0  0  0  0  0  0  0  0  0  0  0
   -1.0331   -7.7434    4.1204 H   0  0  0  0  0  0  0  0  0  0  0  0
   -2.4808   -7.7980    3.0698 H   0  0  0  0  0  0  0  0  0  0  0  0
    5.6385   -2.3798    2.1924 H   0  0  0  0  0  0  0  0  0  0  0  0
    4.1663   -2.0832    3.1479 H   0  0  0  0  0  0  0  0  0  0  0  0
    4.7067   -3.7510    2.8404 H   0  0  0  0  0  0  0  0  0  0  0  0
  1  2  1  0  0  0  0
  1 38  1  0  0  0  0
  1 39  1  0  0  0  0
  1 40  1  0  0  0  0
  2  6  1  0  0  0  0
  2  3  2  0  0  0  0
  3  4  1  0  0  0  0
  3 41  1  0  0  0  0
  4  5  2  0  0  0  0
  4 42  1  0  0  0  0
  5  6  1  0  0  0  0
  5  7  1  0  0  0  0
  7  8  1  6  0  0  0
  7 26  1  0  0  0  0
  7  9  1  0  0  0  0
  9 15  1  0  0  0  0
  9 10  2  0  0  0  0
 10 11  1  0  0  0  0
 10 24  1  0  0  0  0
 11 12  1  0  0  0  0
 11 43  1  0  0  0  0
 11 44  1  0  0  0  0
 12 13  1  1  0  0  0
 12 14  1  0  0  0  0
 12 17  1  0  0  0  0
 14 15  1  0  0  0  0
 14 45  1  0  0  0  0
 14 46  1  0  0  0  0
 15 16  2  0  0  0  0
 17 22  2  0  0  0  0
 17 18  1  0  0  0  0
 18 19  2  0  0  0  0
 18 47  1  0  0  0  0
 19 20  1  0  0  0  0
 19 48  1  0  0  0  0
 20 21  2  0  0  0  0
 20 23  1  0  0  0  0
 21 22  1  0  0  0  0
 21 49  1  0  0  0  0
 22 50  1  0  0  0  0
 24 25  1  0  0  0  0
 24 51  1  0  0  0  0
 25 26  2  0  0  0  0
 25 37  1  0  0  0  0
 26 27  1  0  0  0  0
 27 28  2  0  0  0  0
 27 29  1  0  0  0  0
 29 30  1  0  0  0  0
 30 31  1  0  0  0  0
 30 52  1  0  0  0  0
 30 53  1  0  0  0  0
 31 32  1  6  0  0  0
 31 36  1  0  0  0  0
 31 33  1  0  0  0  0
 33 34  1  0  0  0  0
 33 54  1  0  0  0  0
 33 55  1  0  0  0  0
 34 35  1  0  0  0  0
 34 56  1  0  0  0  0
 34 57  1  0  0  0  0
 35 36  1  0  0  0  0
 35 58  1  0  0  0  0
 35 59  1  0  0  0  0
 37 60  1  0  0  0  0
 37 61  1  0  0  0  0
 37 62  1  0  0  0  0
M  END
$$$$
ZINC13198624
 OpenBabel01252620473D

 36 37  0  0  0  0  0  0  0  0999 V2000
   -4.7650   -0.9286   -1.0520 C   0  0  0  0  0  0  0  0  0  0  0  0
   -5.6930   -1.8922   -1.3943 C   0  0  0  0  0  0  0  0  0  0  0  0
   -7.0340   -1.5621   -1.4849 C   0  0  0  0  0  0  0  0  0  0  0  0
   -7.4499   -0.2676   -1.2269 C   0  0  0  0  0  0  0  0  0  0  0  0
   -6.5273    0.6990   -0.8786 C   0  0  0  0  0  0  0  0  0  0  0  0
   -5.1801    0.3708   -0.7872 C   0  0  0  0  0  0  0  0  0  0  0  0
   -3.9998    1.6015   -0.3436 S   0  0  0  0  0  0  0  0  0  0  0  0
   -2.4167    0.7160   -0.3560 C   0  0  0  0  0  0  0  0  0  0  0  0
   -1.2896    1.6810    0.0173 C   0  0  0  0  0  0  0  0  0  0  0  0
   -0.0111    0.9658    0.0074 N   0  0  0  0  0  0  0  0  0  0  0  0
    1.4116    1.8133   -0.0017 S   0  0  0  0  0  0  0  0  0  0  0  0
    2.4574    0.8513    0.0102 O   0  0  0  0  0  0  0  0  0  0  0  0
    1.2924    2.7963   -1.0209 O   0  0  0  0  0  0  0  0  0  0  0  0
    1.5098    2.6828    1.5277 C   0  0  0  0  0  0  0  0  0  0  0  0
    2.4963    2.3664    2.4368 C   0  0  0  0  0  0  0  0  0  0  0  0
    2.5758    3.0598    3.6468 C   0  0  0  0  0  0  0  0  0  0  0  0
    1.6473    4.0640    3.9328 C   0  0  0  0  0  0  0  0  0  0  0  0
    0.6621    4.3684    3.0187 C   0  0  0  0  0  0  0  0  0  0  0  0
    0.5911    3.6802    1.8168 C   0  0  0  0  0  0  0  0  0  0  0  0
   -0.3766    3.9831    0.9240 F   0  0  0  0  0  0  0  0  0  0  0  0
    3.6333    2.7293    4.6219 C   0  0  0  0  0  0  0  0  0  0  0  0
    4.4395    1.8558    4.3709 O   0  0  0  0  0  0  0  0  0  0  0  0
   -8.1968   -2.7745   -1.9226 Cl  0  0  0  0  0  0  0  0  0  0  0  0
   -3.7181   -1.1856   -0.9861 H   0  0  0  0  0  0  0  0  0  0  0  0
   -5.3716   -2.9034   -1.5955 H   0  0  0  0  0  0  0  0  0  0  0  0
   -8.4971   -0.0132   -1.2978 H   0  0  0  0  0  0  0  0  0  0  0  0
   -6.8525    1.7090   -0.6770 H   0  0  0  0  0  0  0  0  0  0  0  0
   -2.2342    0.3119   -1.3517 H   0  0  0  0  0  0  0  0  0  0  0  0
   -2.4509   -0.0995    0.3665 H   0  0  0  0  0  0  0  0  0  0  0  0
   -1.4721    2.0851    1.0130 H   0  0  0  0  0  0  0  0  0  0  0  0
   -1.2554    2.4965   -0.7051 H   0  0  0  0  0  0  0  0  0  0  0  0
    0.0021   -0.0041    0.0020 H   0  0  0  0  0  0  0  0  0  0  0  0
    3.2089    1.5865    2.2124 H   0  0  0  0  0  0  0  0  0  0  0  0
    1.7014    4.6003    4.8687 H   0  0  0  0  0  0  0  0  0  0  0  0
   -0.0564    5.1441    3.2389 H   0  0  0  0  0  0  0  0  0  0  0  0
    3.7047    3.3963    5.7903 O   0  0  0  0  0  1  0  0  0  0  0  0
  1  6  2  0  0  0  0
  1  2  1  0  0  0  0
  1 24  1  0  0  0  0
  2  3  2  0  0  0  0
  2 25  1  0  0  0  0
  3  4  1  0  0  0  0
  3 23  1  0  0  0  0
  4  5  2  0  0  0  0
  4 26  1  0  0  0  0
  5  6  1  0  0  0  0
  5 27  1  0  0  0  0
  6  7  1  0  0  0  0
  7  8  1  0  0  0  0
  8  9  1  0  0  0  0
  8 28  1  0  0  0  0
  8 29  1  0  0  0  0
  9 10  1  0  0  0  0
  9 30  1  0  0  0  0
  9 31  1  0  0  0  0
 10 11  1  0  0  0  0
 10 32  1  0  0  0  0
 11 12  2  0  0  0  0
 11 13  2  0  0  0  0
 11 14  1  0  0  0  0
 14 19  2  0  0  0  0
 14 15  1  0  0  0  0
 15 16  2  0  0  0  0
 15 33  1  0  0  0  0
 16 17  1  0  0  0  0
 16 21  1  0  0  0  0
 17 18  2  0  0  0  0
 17 34  1  0  0  0  0
 18 19  1  0  0  0  0
 18 35  1  0  0  0  0
 19 20  1  0  0  0  0
 21 22  2  0  0  0  0
 21 36  1  0  0  0  0
M  END
$$$$
ZINC66506099
 OpenBabel01252620473D

 42 43  0  0  0  0  0  0  0  0999 V2000
   -0.0187    1.5258    0.0104 C   0  0  0  0  0  0  0  0  0  0  0  0
    0.0021   -0.0041    0.0020 C   0  0  0  0  0  0  0  0  0  0  0  0
    0.7182   -0.4975   -1.2568 C   0  0  0  0  0  0  0  0  0  0  0  0
    0.7390   -2.0273   -1.2652 C   0  0  0  0  0  0  0  0  0  0  0  0
    1.4551   -2.5207   -2.5240 C   0  0  0  0  0  0  0  0  0  0  0  0
    1.4750   -3.9856   -2.5321 N   0  0  0  0  0  0  0  0  0  0  0  0
    2.0630   -4.6517   -3.5608 C   0  0  0  0  0  0  0  0  0  0  0  0
    2.6268   -3.9656   -4.5718 O   0  5  0  0  0  0  0  0  0  0  0  0
    2.0819   -6.0498   -3.5685 C   0  0  0  0  0  0  0  0  0  0  0  0
    1.4819   -6.7799   -2.4926 C   0  0  0  0  0  0  0  0  0  0  0  0
    1.0059   -7.3591   -1.6391 N   0  0  0  0  0  0  0  0  0  0  0  0
    2.6914   -6.7401   -4.6347 C   0  0  0  0  0  0  0  0  0  0  0  0
    3.2005   -6.1207   -5.5476 O   0  0  0  0  0  0  0  0  0  0  0  0
    2.7118   -8.2470   -4.6430 C   0  0  0  0  0  0  0  0  0  0  0  0
    3.4172   -8.7330   -5.8829 C   0  0  0  0  0  0  0  0  0  0  0  0
    4.4691   -9.5860   -5.7765 C   0  0  0  0  0  0  0  0  0  0  0  0
    4.8888   -9.8114   -7.5003 S   0  0  0  0  0  0  0  0  0  0  0  0
    3.6202   -8.7471   -8.1748 C   0  0  0  0  0  0  0  0  0  0  0  0
    3.0122   -8.3366   -7.0676 N   0  0  0  0  0  0  0  0  0  0  0  0
    3.3258   -8.4189   -9.5782 C   0  0  0  0  0  0  0  0  0  0  0  0
    3.9520   -8.8563  -10.7180 C   0  0  0  0  0  0  0  0  0  0  0  0
    3.4956   -8.4080  -11.9365 C   0  0  0  0  0  0  0  0  0  0  0  0
    2.4420   -7.5487  -11.9738 C   0  0  0  0  0  0  0  0  0  0  0  0
    2.0556   -7.3541  -10.2418 S   0  0  0  0  0  0  0  0  0  0  0  0
    1.6672   -6.8314  -13.3518 Cl  0  0  0  0  0  0  0  0  0  0  0  0
    1.0039    1.9031    0.0027 H   0  0  0  0  0  0  0  0  0  0  0  0
   -0.5459    1.8868   -0.8726 H   0  0  0  0  0  0  0  0  0  0  0  0
   -0.5289    1.8773    0.9072 H   0  0  0  0  0  0  0  0  0  0  0  0
    0.5293   -0.3651    0.8851 H   0  0  0  0  0  0  0  0  0  0  0  0
   -1.0205   -0.3814    0.0098 H   0  0  0  0  0  0  0  0  0  0  0  0
    0.1910   -0.1364   -2.1398 H   0  0  0  0  0  0  0  0  0  0  0  0
    1.7408   -0.1202   -1.2645 H   0  0  0  0  0  0  0  0  0  0  0  0
    1.2661   -2.3884   -0.3821 H   0  0  0  0  0  0  0  0  0  0  0  0
   -0.2836   -2.4046   -1.2575 H   0  0  0  0  0  0  0  0  0  0  0  0
    0.9279   -2.1597   -3.4071 H   0  0  0  0  0  0  0  0  0  0  0  0
    2.4777   -2.1435   -2.5317 H   0  0  0  0  0  0  0  0  0  0  0  0
    1.0685   -4.4802   -1.8033 H   0  0  0  0  0  0  0  0  0  0  0  0
    3.2390   -8.6081   -3.7600 H   0  0  0  0  0  0  0  0  0  0  0  0
    1.6892   -8.6243   -4.6353 H   0  0  0  0  0  0  0  0  0  0  0  0
    4.9259  -10.0105   -4.8947 H   0  0  0  0  0  0  0  0  0  0  0  0
    4.7871   -9.5387  -10.6601 H   0  0  0  0  0  0  0  0  0  0  0  0
    3.9681   -8.7340  -12.8512 H   0  0  0  0  0  0  0  0  0  0  0  0
  1  2  1  0  0  0  0
  1 26  1  0  0  0  0
  1 27  1  0  0  0  0
  1 28  1  0  0  0  0
  2  3  1  0  0  0  0
  2 29  1  0  0  0  0
  2 30  1  0  0  0  0
  3  4  1  0  0  0  0
  3 31  1  0  0  0  0
  3 32  1  0  0  0  0
  4  5  1  0  0  0  0
  4 33  1  0  0  0  0
  4 34  1  0  0  0  0
  5  6  1  0  0  0  0
  5 35  1  0  0  0  0
  5 36  1  0  0  0  0
  6  7  1  0  0  0  0
  6 37  1  0  0  0  0
  7  8  1  0  0  0  0
  7  9  2  0  0  0  0
  9 10  1  0  0  0  0
  9 12  1  0  0  0  0
 10 11  3  0  0  0  0
 12 13  2  0  0  0  0
 12 14  1  0  0  0  0
 14 15  1  0  0  0  0
 14 38  1  0  0  0  0
 14 39  1  0  0  0  0
 15 19  1  0  0  0  0
 15 16  2  0  0  0  0
 16 17  1  0  0  0  0
 16 40  1  0  0  0  0
 17 18  1  0  0  0  0
 18 19  2  0  0  0  0
 18 20  1  0  0  0  0
 20 24  1  0  0  0  0
 20 21  2  0  0  0  0
 21 22  1  0  0  0  0
 21 41  1  0  0  0  0
 22 23  2  0  0  0  0
 22 42  1  0  0  0  0
 23 24  1  0  0  0  0
 23 25  1  0  0  0  0
M  CHG  1   8  -1
M  END
$$$$
ZINC62869454
 OpenBabel01252620473D

 38 39  0  0  1  0  0  0  0  0999 V2000
   -0.2642    2.1473   -0.1758 C   0  0  0  0  0  0  0  0  0  0  0  0
   -0.3159    0.6712    0.2233 C   0  0  0  0  0  0  0  0  0  0  0  0
    0.5105   -0.1537   -0.7653 C   0  0  1  0  0  0  0  0  0  0  0  0
    0.4558   -1.6309   -0.3690 C   0  0  0  0  0  0  0  0  0  0  0  0
   -0.9995   -2.1044   -0.3581 C   0  0  0  0  0  0  0  0  0  0  0  0
   -1.5902   -1.9588   -1.7640 C   0  0  0  0  0  0  0  0  0  0  0  0
   -1.4105   -0.5708   -2.2111 N   0  0  0  0  0  0  0  0  0  0  0  0
   -0.0631    0.0139   -2.1759 C   0  0  0  0  0  0  0  0  0  0  0  0
   -2.4617    0.1521   -2.6456 C   0  0  0  0  0  0  0  0  0  0  0  0
   -2.3209    1.3296   -2.9121 O   0  0  0  0  0  0  0  0  0  0  0  0
   -3.7867   -0.4873   -2.7982 C   0  0  0  0  0  0  0  0  0  0  0  0
   -4.9398    0.1927   -2.4014 C   0  0  0  0  0  0  0  0  0  0  0  0
   -6.1736   -0.4026   -2.5433 C   0  0  0  0  0  0  0  0  0  0  0  0
   -6.2714   -1.6866   -3.0844 C   0  0  0  0  0  0  0  0  0  0  0  0
   -5.1177   -2.3666   -3.4813 C   0  0  0  0  0  0  0  0  0  0  0  0
   -3.8846   -1.7686   -3.3444 C   0  0  0  0  0  0  0  0  0  0  0  0
   -7.5541   -2.3059   -3.2317 C   0  0  0  0  0  0  0  0  0  0  0  0
   -8.5717   -2.7972   -3.3485 N   0  0  0  0  0  0  0  0  0  0  0  0
    1.9406    0.3208   -0.7442 C   0  0  0  0  0  0  0  0  0  0  0  0
    2.2690    1.2344   -0.0066 O   0  0  0  0  0  0  0  0  0  0  0  0
    2.7694   -0.2089   -1.4647 O   0  0  0  0  0  1  0  0  0  0  0  0
    0.7699    2.4916   -0.1610 H   0  0  0  0  0  0  0  0  0  0  0  0
   -0.6726    2.2669   -1.1793 H   0  0  0  0  0  0  0  0  0  0  0  0
   -0.8529    2.7350    0.5286 H   0  0  0  0  0  0  0  0  0  0  0  0
    0.0925    0.5516    1.2268 H   0  0  0  0  0  0  0  0  0  0  0  0
   -1.3500    0.3269    0.2085 H   0  0  0  0  0  0  0  0  0  0  0  0
    1.0243   -2.2210   -1.0878 H   0  0  0  0  0  0  0  0  0  0  0  0
    0.8859   -1.7564    0.6246 H   0  0  0  0  0  0  0  0  0  0  0  0
   -1.0396   -3.1501   -0.0531 H   0  0  0  0  0  0  0  0  0  0  0  0
   -1.5740   -1.4983    0.3424 H   0  0  0  0  0  0  0  0  0  0  0  0
   -1.0749   -2.6328   -2.4484 H   0  0  0  0  0  0  0  0  0  0  0  0
   -2.6528   -2.2006   -1.7408 H   0  0  0  0  0  0  0  0  0  0  0  0
   -0.1181    1.0738   -2.4244 H   0  0  0  0  0  0  0  0  0  0  0  0
    0.5767   -0.4991   -2.8939 H   0  0  0  0  0  0  0  0  0  0  0  0
   -4.8641    1.1853   -1.9827 H   0  0  0  0  0  0  0  0  0  0  0  0
   -7.0655    0.1233   -2.2360 H   0  0  0  0  0  0  0  0  0  0  0  0
   -5.1930   -3.3594   -3.8997 H   0  0  0  0  0  0  0  0  0  0  0  0
   -2.9929   -2.2926   -3.6553 H   0  0  0  0  0  0  0  0  0  0  0  0
  1  2  1  0  0  0  0
  1 22  1  0  0  0  0
  1 23  1  0  0  0  0
  1 24  1  0  0  0  0
  2  3  1  0  0  0  0
  2 25  1  0  0  0  0
  2 26  1  0  0  0  0
  3  8  1  0  0  0  0
  3  4  1  0  0  0  0
  3 19  1  1  0  0  0
  4  5  1  0  0  0  0
  4 27  1  0  0  0  0
  4 28  1  0  0  0  0
  5  6  1  0  0  0  0
  5 29  1  0  0  0  0
  5 30  1  0  0  0  0
  6  7  1  0  0  0  0
  6 31  1  0  0  0  0
  6 32  1  0  0  0  0
  7  8  1  0  0  0  0
  7  9  1  0  0  0  0
  8 33  1  0  0  0  0
  8 34  1  0  0  0  0
  9 10  2  0  0  0  0
  9 11  1  0  0  0  0
 11 16  2  0  0  0  0
 11 12  1  0  0  0  0
 12 13  2  0  0  0  0
 12 35  1  0  0  0  0
 13 14  1  0  0  0  0
 13 36  1  0  0  0  0
 14 15  2  0  0  0  0
 14 17  1  0  0  0  0
 15 16  1  0  0  0  0
 15 37  1  0  0  0  0
 16 38  1  0  0  0  0
 17 18  3  0  0  0  0
 19 20  2  0  0  0  0
 19 21  1  0  0  0  0
M  END
$$$$
ZINC18223066
 OpenBabel01252620473D

 47 51  0  0  1  0  0  0  0  0999 V2000
    3.3419   -0.6408   -5.0898 C   0  0  0  0  0  0  0  0  0  0  0  0
    4.7185   -0.5048   -4.9780 C   0  0  0  0  0  0  0  0  0  0  0  0
    5.4036   -1.1147   -3.9500 C   0  0  0  0  0  0  0  0  0  0  0  0
    4.7124   -1.8751   -3.0121 C   0  0  0  0  0  0  0  0  0  0  0  0
    3.3191   -2.0118   -3.1257 C   0  0  0  0  0  0  0  0  0  0  0  0
    2.6391   -1.3891   -4.1719 C   0  0  0  0  0  0  0  0  0  0  0  0
    2.6048   -2.8220   -2.1215 C   0  0  0  0  0  0  0  0  0  0  0  0
    3.3609   -3.4187   -1.0967 C   0  0  0  0  0  0  0  0  0  0  0  0
    4.7098   -3.2405   -1.0516 C   0  0  0  0  0  0  0  0  0  0  0  0
    5.3747   -2.4963   -1.9737 N   0  0  0  0  0  0  0  0  0  0  0  0
    5.4116   -3.8242   -0.0560 O   0  5  0  0  0  0  0  0  0  0  0  0
    2.6770   -4.2561   -0.0468 C   0  0  2  0  0  0  0  0  0  0  0  0
    1.5160   -4.9898   -0.6672 C   0  0  0  0  0  0  0  0  0  0  0  0
    1.7371   -6.0080   -1.5822 C   0  0  0  0  0  0  0  0  0  0  0  0
    0.6390   -6.6552   -2.1273 C   0  0  0  0  0  0  0  0  0  0  0  0
   -0.6308   -6.2667   -1.7435 C   0  0  0  0  0  0  0  0  0  0  0  0
   -0.8034   -5.2935   -0.8707 N   0  0  0  0  0  0  0  0  0  0  0  0
    0.2179   -4.6601   -0.3273 C   0  0  0  0  0  0  0  0  0  0  0  0
    2.1743   -3.3636    1.0586 C   0  0  0  0  0  0  0  0  0  0  0  0
    2.3240   -2.0093    0.9618 C   0  0  0  0  0  0  0  0  0  0  0  0
    1.8210   -1.1714    2.0588 C   0  0  0  0  0  0  0  0  0  0  0  0
    1.9425    0.2197    2.0209 C   0  0  0  0  0  0  0  0  0  0  0  0
    1.4636    0.9702    3.0578 C   0  0  0  0  0  0  0  0  0  0  0  0
    0.8580    0.3619    4.1484 C   0  0  0  0  0  0  0  0  0  0  0  0
    0.7279   -1.0090    4.2059 C   0  0  0  0  0  0  0  0  0  0  0  0
    1.2078   -1.7921    3.1612 C   0  0  0  0  0  0  0  0  0  0  0  0
    1.0906   -3.1666    3.1920 N   0  0  0  0  0  0  0  0  0  0  0  0
    1.5485   -3.9258    2.1819 C   0  0  0  0  0  0  0  0  0  0  0  0
    1.4212   -5.1371    2.2456 O   0  0  0  0  0  0  0  0  0  0  0  0
    2.9211   -1.4532   -0.1176 O   0  0  0  0  0  0  0  0  0  0  0  0
    1.3941   -2.9699   -2.1778 O   0  0  0  0  0  0  0  0  0  0  0  0
    2.8182   -0.1532   -5.8988 H   0  0  0  0  0  0  0  0  0  0  0  0
    5.2582    0.0847   -5.7043 H   0  0  0  0  0  0  0  0  0  0  0  0
    6.4750   -1.0031   -3.8725 H   0  0  0  0  0  0  0  0  0  0  0  0
    1.5679   -1.4933   -4.2618 H   0  0  0  0  0  0  0  0  0  0  0  0
    3.3856   -4.9765    0.3618 H   0  0  0  0  0  0  0  0  0  0  0  0
    2.7410   -6.2900   -1.8637 H   0  0  0  0  0  0  0  0  0  0  0  0
    0.7739   -7.4526   -2.8431 H   0  0  0  0  0  0  0  0  0  0  0  0
   -1.4915   -6.7658   -2.1635 H   0  0  0  0  0  0  0  0  0  0  0  0
    0.0373   -3.8715    0.3881 H   0  0  0  0  0  0  0  0  0  0  0  0
    2.4133    0.7001    1.1759 H   0  0  0  0  0  0  0  0  0  0  0  0
    1.5576    2.0457    3.0285 H   0  0  0  0  0  0  0  0  0  0  0  0
    0.4853    0.9688    4.9603 H   0  0  0  0  0  0  0  0  0  0  0  0
    0.2554   -1.4735    5.0588 H   0  0  0  0  0  0  0  0  0  0  0  0
    2.9748   -0.4883   -0.0838 H   0  0  0  0  0  0  0  0  0  0  0  0
    6.3370   -2.3988   -1.8995 H   0  0  0  0  0  0  0  0  0  0  0  0
    0.6673   -3.5919    3.9541 H   0  0  0  0  0  0  0  0  0  0  0  0
  1  6  2  0  0  0  0
  1  2  1  0  0  0  0
  1 32  1  0  0  0  0
  2  3  2  0  0  0  0
  2 33  1  0  0  0  0
  3  4  1  0  0  0  0
  3 34  1  0  0  0  0
  4 10  1  0  0  0  0
  4  5  2  0  0  0  0
  5  6  1  0  0  0  0
  5  7  1  0  0  0  0
  6 35  1  0  0  0  0
  7  8  1  0  0  0  0
  7 31  2  0  0  0  0
  8  9  2  0  0  0  0
  8 12  1  0  0  0  0
  9 10  1  0  0  0  0
  9 11  1  0  0  0  0
 10 46  1  0  0  0  0
 12 13  1  0  0  0  0
 12 19  1  0  0  0  0
 12 36  1  1  0  0  0
 13 18  2  0  0  0  0
 13 14  1  0  0  0  0
 14 15  2  0  0  0  0
 14 37  1  0  0  0  0
 15 16  1  0  0  0  0
 15 38  1  0  0  0  0
 16 17  2  0  0  0  0
 16 39  1  0  0  0  0
 17 18  1  0  0  0  0
 18 40  1  0  0  0  0
 19 28  1  0  0  0  0
 19 20  2  0  0  0  0
 20 21  1  0  0  0  0
 20 30  1  0  0  0  0
 21 26  2  0  0  0  0
 21 22  1  0  0  0  0
 22 23  2  0  0  0  0
 22 41  1  0  0  0  0
 23 24  1  0  0  0  0
 23 42  1  0  0  0  0
 24 25  2  0  0  0  0
 24 43  1  0  0  0  0
 25 26  1  0  0  0  0
 25 44  1  0  0  0  0
 26 27  1  0  0  0  0
 27 28  1  0  0  0  0
 27 47  1  0  0  0  0
 28 29  2  0  0  0  0
 30 45  1  0  0  0  0
M  CHG  1  11  -1
M  END
$$$$
ZINC04798976
 OpenBabel01252620473D

 14 14  0  0  0  0  0  0  0  0999 V2000
   -2.5161    1.2302    0.0207 C   0  0  0  0  0  0  0  0  0  0  0  0
   -3.7058    1.9628    0.0308 C   0  0  0  0  0  0  0  0  0  0  0  0
   -3.6434    3.2911    0.0382 N   0  0  0  0  0  0  0  0  0  0  0  0
   -2.4838    3.9146    0.0360 C   0  0  0  0  0  0  0  0  0  0  0  0
   -1.3395    3.2634    0.0317 N   0  0  0  0  0  0  0  0  0  0  0  0
   -1.3092    1.9340    0.0188 C   0  0  0  0  0  0  0  0  0  0  0  0
   -0.0144    1.2097    0.0087 C   0  0  0  0  0  0  0  0  0  0  0  0
    0.0021   -0.0041    0.0020 O   0  0  0  0  0  0  0  0  0  0  0  0
   -5.0176    1.2698    0.0338 C   0  0  0  0  0  0  0  0  0  0  0  0
   -5.0633    0.0567    0.0274 O   0  0  0  0  0  0  0  0  0  0  0  0
   -2.5291    0.1503    0.0148 H   0  0  0  0  0  0  0  0  0  0  0  0
   -2.4708    4.9945    0.0426 H   0  0  0  0  0  0  0  0  0  0  0  0
    1.1423    1.8987    0.0013 O   0  0  0  0  0  1  0  0  0  0  0  0
   -6.1575    1.9863    0.0435 O   0  0  0  0  0  1  0  0  0  0  0  0
  1  6  2  0  0  0  0
  1  2  1  0  0  0  0
  1 11  1  0  0  0  0
  2  3  2  0  0  0  0
  2  9  1  0  0  0  0
  3  4  1  0  0  0  0
  4  5  2  0  0  0  0
  4 12  1  0  0  0  0
  5  6  1  0  0  0  0
  6  7  1  0  0  0  0
  7  8  2  0  0  0  0
  7 13  1  0  0  0  0
  9 10  2  0  0  0  0
  9 14  1  0  0  0  0
M  END
$$$$
ZINC16527403
 OpenBabel01252620473D

 36 39  0  0  1  0  0  0  0  0999 V2000
    7.9295   -0.0006    0.5134 C   0  0  0  0  0  0  0  0  0  0  0  0
    8.2266   -0.2842    1.8310 C   0  0  0  0  0  0  0  0  0  0  0  0
    7.2796   -0.0414    2.8279 C   0  0  0  0  0  0  0  0  0  0  0  0
    6.0344    0.4879    2.4865 C   0  0  0  0  0  0  0  0  0  0  0  0
    5.7463    0.7691    1.1604 C   0  0  0  0  0  0  0  0  0  0  0  0
    6.6940    0.5184    0.1749 C   0  0  0  0  0  0  0  0  0  0  0  0
    4.4989    1.3001    0.8127 N   0  0  0  0  0  0  0  0  0  0  0  0
    3.3990    0.9472    1.5072 C   0  0  0  0  0  0  0  0  0  0  0  0
    3.4732    0.0984    2.3703 O   0  0  0  0  0  0  0  0  0  0  0  0
    2.0727    1.6095    1.2102 C   0  0  2  0  0  0  0  0  0  0  0  0
    2.1041    2.6777    1.4806 H   0  0  0  0  0  0  0  0  0  0  0  0
    0.8366    0.8600    1.8359 C   0  0  1  0  0  0  0  0  0  0  0  0
    0.8649    0.7350    2.9272 H   0  0  0  0  0  0  0  0  0  0  0  0
   -0.3308    1.7446    1.3012 C   0  0  0  0  0  0  0  0  0  0  0  0
    0.0216    1.5392   -0.2000 C   0  0  1  0  0  0  0  0  0  0  0  0
   -0.4688    2.1846   -0.9475 H   0  0  0  0  0  0  0  0  0  0  0  0
    1.6012    1.3904   -0.1537 C   0  0  1  0  0  0  0  0  0  0  0  0
    1.7070    0.3141   -0.0662 H   0  0  0  0  0  0  0  0  0  0  0  0
    1.8319    1.1166   -1.5736 C   0  0  0  0  0  0  0  0  0  0  0  0
    2.2947    1.7065   -2.4998 O   0  0  0  0  0  0  0  0  0  0  0  0
    1.2594   -0.1549   -1.3448 O   0  0  0  0  0  0  0  0  0  0  0  0
    0.1017   -0.0171   -0.4156 C   0  0  1  0  0  0  0  0  0  0  0  0
   -0.8216   -0.4922   -0.7765 H   0  0  0  0  0  0  0  0  0  0  0  0
    0.5230   -0.4395    1.0393 C   0  0  0  0  0  0  0  0  0  0  0  0
    7.5949   -0.3435    4.2393 C   0  0  0  0  0  0  0  0  0  0  0  0
    6.7696   -0.1311    5.1049 O   0  0  0  0  0  0  0  0  0  0  0  0
    8.6633   -0.1890   -0.2563 H   0  0  0  0  0  0  0  0  0  0  0  0
    9.1914   -0.6941    2.0909 H   0  0  0  0  0  0  0  0  0  0  0  0
    5.2978    0.6782    3.2531 H   0  0  0  0  0  0  0  0  0  0  0  0
    6.4656    0.7338   -0.8584 H   0  0  0  0  0  0  0  0  0  0  0  0
    4.4260    1.9220    0.0719 H   0  0  0  0  0  0  0  0  0  0  0  0
   -0.2346    2.7846    1.6151 H   0  0  0  0  0  0  0  0  0  0  0  0
   -1.3077    1.3350    1.5612 H   0  0  0  0  0  0  0  0  0  0  0  0
   -0.3071   -0.9665    1.5158 H   0  0  0  0  0  0  0  0  0  0  0  0
    1.3911   -1.0910    1.0084 H   0  0  0  0  0  0  0  0  0  0  0  0
    8.7977   -0.8545    4.5663 O   0  0  0  0  0  1  0  0  0  0  0  0
  1  6  2  0  0  0  0
  1  2  1  0  0  0  0
  1 27  1  0  0  0  0
  2  3  2  0  0  0  0
  2 28  1  0  0  0  0
  3  4  1  0  0  0  0
  3 25  1  0  0  0  0
  4  5  2  0  0  0  0
  4 29  1  0  0  0  0
  5  6  1  0  0  0  0
  5  7  1  0  0  0  0
  6 30  1  0  0  0  0
  7  8  1  0  0  0  0
  7 31  1  0  0  0  0
  8  9  2  0  0  0  0
  8 10  1  0  0  0  0
 10 11  1  1  0  0  0
 10 17  1  0  0  0  0
 10 12  1  0  0  0  0
 12 13  1  1  0  0  0
 12 24  1  0  0  0  0
 12 14  1  0  0  0  0
 14 15  1  0  0  0  0
 14 32  1  0  0  0  0
 14 33  1  0  0  0  0
 15 16  1  6  0  0  0
 15 22  1  0  0  0  0
 15 17  1  0  0  0  0
 17 18  1  1  0  0  0
 17 19  1  0  0  0  0
 19 20  2  0  0  0  0
 19 21  1  0  0  0  0
 21 22  1  0  0  0  0
 22 23  1  6  0  0  0
 22 24  1  0  0  0  0
 24 34  1  0  0  0  0
 24 35  1  0  0  0  0
 25 26  2  0  0  0  0
 25 36  1  0  0  0  0
M  END
$$$$
ZINC13351850
 OpenBabel01252620473D

 29 30  0  0  0  0  0  0  0  0999 V2000
   -0.7139    3.9653   -0.6972 C   0  0  0  0  0  0  0  0  0  0  0  0
   -1.7292    4.8938   -0.7778 C   0  0  0  0  0  0  0  0  0  0  0  0
   -1.5464    6.1716   -0.2720 C   0  0  0  0  0  0  0  0  0  0  0  0
   -0.3436    6.5232    0.3247 C   0  0  0  0  0  0  0  0  0  0  0  0
    0.6778    5.6023    0.4179 C   0  0  0  0  0  0  0  0  0  0  0  0
    0.4996    4.3106   -0.0913 C   0  0  0  0  0  0  0  0  0  0  0  0
    1.5837    3.3235    0.0044 C   0  0  0  0  0  0  0  0  0  0  0  0
    1.2977    2.0263    0.2803 C   0  0  0  0  0  0  0  0  0  0  0  0
    0.0163    1.4088    0.6804 C   0  0  0  0  0  0  0  0  0  0  0  0
   -0.9989    2.0677    0.8078 O   0  0  0  0  0  0  0  0  0  0  0  0
    0.0277    0.1027    0.8875 N   0  0  0  0  0  0  0  0  0  0  0  0
    1.1537   -0.6244    0.7398 C   0  0  0  0  0  0  0  0  0  0  0  0
    1.3679   -2.3087    0.9596 S   0  0  0  0  0  0  0  0  0  0  0  0
    2.3672    0.5941    0.2592 S   0  0  0  0  0  0  0  0  0  0  0  0
   -1.2114   -0.5696    1.2859 C   0  0  0  0  0  0  0  0  0  0  0  0
   -1.9680   -1.0265    0.0370 C   0  0  0  0  0  0  0  0  0  0  0  0
   -3.2427   -1.7182    0.4469 C   0  0  0  0  0  0  0  0  0  0  0  0
   -3.5177   -1.8338    1.6177 O   0  0  0  0  0  0  0  0  0  0  0  0
   -0.1059    8.2688    1.0116 Br  0  0  0  0  0  0  0  0  0  0  0  0
   -2.5438    7.0786   -0.3599 F   0  0  0  0  0  0  0  0  0  0  0  0
   -0.8562    2.9718   -1.0961 H   0  0  0  0  0  0  0  0  0  0  0  0
   -2.6678    4.6268   -1.2406 H   0  0  0  0  0  0  0  0  0  0  0  0
    1.6134    5.8768    0.8824 H   0  0  0  0  0  0  0  0  0  0  0  0
    2.6083    3.6306   -0.1448 H   0  0  0  0  0  0  0  0  0  0  0  0
   -0.9726   -1.4357    1.9032 H   0  0  0  0  0  0  0  0  0  0  0  0
   -1.8332    0.1217    1.8548 H   0  0  0  0  0  0  0  0  0  0  0  0
   -2.2069   -0.1605   -0.5803 H   0  0  0  0  0  0  0  0  0  0  0  0
   -1.3463   -1.7178   -0.5319 H   0  0  0  0  0  0  0  0  0  0  0  0
   -4.0724   -2.2058   -0.4888 O   0  0  0  0  0  1  0  0  0  0  0  0
  1  6  2  0  0  0  0
  1  2  1  0  0  0  0
  1 21  1  0  0  0  0
  2  3  2  0  0  0  0
  2 22  1  0  0  0  0
  3  4  1  0  0  0  0
  3 20  1  0  0  0  0
  4  5  2  0  0  0  0
  4 19  1  0  0  0  0
  5  6  1  0  0  0  0
  5 23  1  0  0  0  0
  6  7  1  0  0  0  0
  7  8  2  0  0  0  0
  7 24  1  0  0  0  0
  8 14  1  0  0  0  0
  8  9  1  0  0  0  0
  9 10  2  0  0  0  0
  9 11  1  0  0  0  0
 11 12  1  0  0  0  0
 11 15  1  0  0  0  0
 12 13  2  0  0  0  0
 12 14  1  0  0  0  0
 15 16  1  0  0  0  0
 15 25  1  0  0  0  0
 15 26  1  0  0  0  0
 16 17  1  0  0  0  0
 16 27  1  0  0  0  0
 16 28  1  0  0  0  0
 17 18  2  0  0  0  0
 17 29  1  0  0  0  0
M  END
$$$$
ZINC20833682
 OpenBabel01252620473D

 49 52  0  0  0  0  0  0  0  0999 V2000
  -24.1681    4.6024    1.6102 C   0  0  0  0  0  0  0  0  0  0  0  0
  -22.9372    4.4027    0.7640 C   0  0  0  0  0  0  0  0  0  0  0  0
  -22.8885    4.4018   -0.5378 N   0  0  0  0  0  0  0  0  0  0  0  0
  -21.6760    4.2025   -0.9195 N   0  0  0  0  0  0  0  0  0  0  0  0
  -20.9100    4.0694    0.1258 C   0  0  0  0  0  0  0  0  0  0  0  0
  -21.6895    4.1874    1.2138 O   0  0  0  0  0  0  0  0  0  0  0  0
  -19.4235    3.8220    0.1164 C   0  0  0  0  0  0  0  0  0  0  0  0
  -18.5462    5.4097    0.1223 S   0  0  0  0  0  0  0  0  0  0  0  0
  -16.8436    4.9560    0.1104 C   0  0  0  0  0  0  0  0  0  0  0  0
  -16.2818    3.7560    0.0999 N   0  0  0  0  0  0  0  0  0  0  0  0
  -15.0295    3.6061    0.0930 N   0  0  0  0  0  0  0  0  0  0  0  0
  -14.1999    4.6366    0.0957 C   0  0  0  0  0  0  0  0  0  0  0  0
  -15.3781    5.9847    0.1174 S   0  0  0  0  0  0  0  0  0  0  0  0
  -12.8074    4.6647    0.0896 N   0  0  0  0  0  0  0  0  0  0  0  0
  -12.1101    3.5114    0.0787 C   0  0  0  0  0  0  0  0  0  0  0  0
  -12.6953    2.4489    0.0743 O   0  0  0  0  0  0  0  0  0  0  0  0
  -10.6035    3.5418    0.0722 C   0  0  0  0  0  0  0  0  0  0  0  0
   -9.9644    1.8442    0.0580 S   0  0  0  0  0  0  0  0  0  0  0  0
   -8.2142    2.0476    0.0514 C   0  0  0  0  0  0  0  0  0  0  0  0
   -7.2892    1.0425    0.0406 N   0  0  0  0  0  0  0  0  0  0  0  0
   -6.0462    1.6122    0.0383 C   0  0  0  0  0  0  0  0  0  0  0  0
   -6.1974    2.9144    0.0523 N   0  0  0  0  0  0  0  0  0  0  0  0
   -7.5709    3.1907    0.0557 N   0  0  0  0  0  0  0  0  0  0  0  0
   -4.8373    0.9316    0.0289 N   0  0  0  0  0  0  0  0  0  0  0  0
   -3.6317    1.6453    0.0276 N   0  0  0  0  0  0  0  0  0  0  0  0
   -2.5001    1.0083    0.0188 C   0  0  0  0  0  0  0  0  0  0  0  0
   -1.2315    1.7591    0.0174 C   0  0  0  0  0  0  0  0  0  0  0  0
   -0.0126    1.0758    0.0080 C   0  0  0  0  0  0  0  0  0  0  0  0
    1.1708    1.7822    0.0005 C   0  0  0  0  0  0  0  0  0  0  0  0
    1.1532    3.1708    0.0081 C   0  0  0  0  0  0  0  0  0  0  0  0
   -0.0557    3.8543    0.0234 C   0  0  0  0  0  0  0  0  0  0  0  0
   -1.2441    3.1565    0.0314 C   0  0  0  0  0  0  0  0  0  0  0  0
    2.3225    3.8630    0.0002 O   0  0  0  0  0  0  0  0  0  0  0  0
  -25.0404    4.7562    0.9580 H   0  0  0  0  0  0  0  0  0  0  0  0
  -24.0315    5.4839    2.2538 H   0  0  0  0  0  0  0  0  0  0  0  0
  -24.3308    3.7128    2.2364 H   0  0  0  0  0  0  0  0  0  0  0  0
  -19.1423    3.2444    1.0093 H   0  0  0  0  0  0  0  0  0  0  0  0
  -19.1516    3.2562   -0.7869 H   0  0  0  0  0  0  0  0  0  0  0  0
  -12.2767    5.6282    0.0937 H   0  0  0  0  0  0  0  0  0  0  0  0
  -10.2514    4.0736   -0.8240 H   0  0  0  0  0  0  0  0  0  0  0  0
  -10.2433    4.0616    0.9722 H   0  0  0  0  0  0  0  0  0  0  0  0
   -4.8253   -0.1683    0.0225 H   0  0  0  0  0  0  0  0  0  0  0  0
   -2.4881   -0.0916    0.0124 H   0  0  0  0  0  0  0  0  0  0  0  0
    0.0021   -0.0041    0.0020 H   0  0  0  0  0  0  0  0  0  0  0  0
    2.1133    1.2550   -0.0118 H   0  0  0  0  0  0  0  0  0  0  0  0
   -0.0644    4.9342    0.0293 H   0  0  0  0  0  0  0  0  0  0  0  0
   -2.1838    3.6888    0.0436 H   0  0  0  0  0  0  0  0  0  0  0  0
    2.3106    4.9629    0.0062 H   0  0  0  0  0  0  0  0  0  0  0  0
   -5.3146    3.5706    0.0590 H   0  0  0  0  0  0  0  0  0  0  0  0
  1  2  1  0  0  0  0
  1 34  1  0  0  0  0
  1 35  1  0  0  0  0
  1 36  1  0  0  0  0
  2  6  1  0  0  0  0
  2  3  2  0  0  0  0
  3  4  1  0  0  0  0
  4  5  2  0  0  0  0
  5  6  1  0  0  0  0
  5  7  1  0  0  0  0
  7  8  1  0  0  0  0
  7 37  1  0  0  0  0
  7 38  1  0  0  0  0
  8  9  1  0  0  0  0
  9 13  1  0  0  0  0
  9 10  2  0  0  0  0
 10 11  1  0  0  0  0
 11 12  2  0  0  0  0
 12 13  1  0  0  0  0
 12 14  1  0  0  0  0
 14 15  1  0  0  0  0
 14 39  1  0  0  0  0
 15 16  2  0  0  0  0
 15 17  1  0  0  0  0
 17 18  1  0  0  0  0
 17 40  1  0  0  0  0
 17 41  1  0  0  0  0
 18 19  1  0  0  0  0
 19 23  2  0  0  0  0
 19 20  1  0  0  0  0
 20 21  2  0  0  0  0
 21 22  1  0  0  0  0
 21 24  1  0  0  0  0
 22 23  1  0  0  0  0
 22 49  1  0  0  0  0
 24 25  1  0  0  0  0
 24 42  1  0  0  0  0
 25 26  2  0  0  0  0
 26 27  1  0  0  0  0
 26 43  1  0  0  0  0
 27 32  2  0  0  0  0
 27 28  1  0  0  0  0
 28 29  2  0  0  0  0
 28 44  1  0  0  0  0
 29 30  1  0  0  0  0
 29 45  1  0  0  0  0
 30 31  2  0  0  0  0
 30 33  1  0  0  0  0
 31 32  1  0  0  0  0
 31 46  1  0  0  0  0
 32 47  1  0  0  0  0
 33 48  1  0  0  0  0
M  END
$$$$
ZINC41844514
 OpenBabel01252620473D

 47 49  0  0  1  0  0  0  0  0999 V2000
   -0.0608    1.4870    0.0432 C   0  0  0  0  0  0  0  0  0  0  0  0
   -0.0265   -0.0191    0.0034 C   0  0  0  0  0  0  0  0  0  0  0  0
   -1.0988   -0.8290   -0.0570 C   0  0  0  0  0  0  0  0  0  0  0  0
   -0.6097   -2.1554   -0.0757 C   0  0  0  0  0  0  0  0  0  0  0  0
    0.7322   -2.0767   -0.0255 C   0  0  0  0  0  0  0  0  0  0  0  0
    1.0800   -0.7801    0.0164 O   0  0  0  0  0  0  0  0  0  0  0  0
    1.6840   -3.2450   -0.0226 C   0  0  2  0  0  0  0  0  0  0  0  0
    1.1433   -4.1549   -0.2831 H   0  0  0  0  0  0  0  0  0  0  0  0
    2.2991   -3.3983    1.3699 C   0  0  0  0  0  0  0  0  0  0  0  0
    3.3117   -4.4566    1.3427 N   0  0  0  0  0  0  0  0  0  0  0  0
    3.9900   -4.7693    2.4646 C   0  0  0  0  0  0  0  0  0  0  0  0
    3.7620   -4.1745    3.4967 O   0  0  0  0  0  0  0  0  0  0  0  0
    5.0316   -5.8580    2.4366 C   0  0  0  0  0  0  0  0  0  0  0  0
    5.6375   -6.0089    3.8082 C   0  0  0  0  0  0  0  0  0  0  0  0
    5.2581   -6.8041    4.8373 C   0  0  0  0  0  0  0  0  0  0  0  0
    5.9765   -6.7382    5.9441 N   0  0  0  0  0  0  0  0  0  0  0  0
    7.0138   -5.9321    6.0336 C   0  0  0  0  0  0  0  0  0  0  0  0
    8.0979   -5.6902    7.4014 S   0  0  0  0  0  1  0  0  0  0  0  0
    7.0573   -5.1948    4.5214 S   0  0  0  0  0  0  0  0  0  0  0  0
    4.0689   -7.7229    4.7247 C   0  0  0  0  0  0  0  0  0  0  0  0
    2.7501   -3.0106   -1.0057 N   0  0  0  0  0  0  0  0  0  0  0  0
    3.5677   -1.8482   -0.6292 C   0  0  0  0  0  0  0  0  0  0  0  0
    4.6996   -1.6765   -1.6457 C   0  0  0  0  0  0  0  0  0  0  0  0
    4.1411   -1.5441   -2.9556 O   0  0  0  0  0  0  0  0  0  0  0  0
    3.3393   -2.6590   -3.3550 C   0  0  0  0  0  0  0  0  0  0  0  0
    2.1937   -2.8407   -2.3558 C   0  0  0  0  0  0  0  0  0  0  0  0
    0.9579    1.8726    0.0851 H   0  0  0  0  0  0  0  0  0  0  0  0
   -0.5551    1.8630   -0.8526 H   0  0  0  0  0  0  0  0  0  0  0  0
   -0.6099    1.8147    0.9259 H   0  0  0  0  0  0  0  0  0  0  0  0
   -2.1346   -0.5245   -0.0852 H   0  0  0  0  0  0  0  0  0  0  0  0
   -1.2002   -3.0585   -0.1210 H   0  0  0  0  0  0  0  0  0  0  0  0
    2.7639   -2.4583    1.6672 H   0  0  0  0  0  0  0  0  0  0  0  0
    1.5191   -3.6600    2.0849 H   0  0  0  0  0  0  0  0  0  0  0  0
    3.4940   -4.9323    0.5173 H   0  0  0  0  0  0  0  0  0  0  0  0
    4.5668   -6.7980    2.1393 H   0  0  0  0  0  0  0  0  0  0  0  0
    5.8116   -5.5963    1.7217 H   0  0  0  0  0  0  0  0  0  0  0  0
    4.3930   -8.6919    4.3451 H   0  0  0  0  0  0  0  0  0  0  0  0
    3.6144   -7.8510    5.7071 H   0  0  0  0  0  0  0  0  0  0  0  0
    3.3391   -7.2903    4.0404 H   0  0  0  0  0  0  0  0  0  0  0  0
    2.9460   -0.9529   -0.6220 H   0  0  0  0  0  0  0  0  0  0  0  0
    3.9904   -2.0066    0.3630 H   0  0  0  0  0  0  0  0  0  0  0  0
    5.2742   -0.7826   -1.4029 H   0  0  0  0  0  0  0  0  0  0  0  0
    5.3521   -2.5490   -1.6146 H   0  0  0  0  0  0  0  0  0  0  0  0
    2.9302   -2.4757   -4.3485 H   0  0  0  0  0  0  0  0  0  0  0  0
    3.9523   -3.5601   -3.3737 H   0  0  0  0  0  0  0  0  0  0  0  0
    1.6134   -3.7235   -2.6241 H   0  0  0  0  0  0  0  0  0  0  0  0
    1.5500   -1.9613   -2.3762 H   0  0  0  0  0  0  0  0  0  0  0  0
  1  2  1  0  0  0  0
  1 27  1  0  0  0  0
  1 28  1  0  0  0  0
  1 29  1  0  0  0  0
  2  6  1  0  0  0  0
  2  3  2  0  0  0  0
  3  4  1  0  0  0  0
  3 30  1  0  0  0  0
  4  5  2  0  0  0  0
  4 31  1  0  0  0  0
  5  6  1  0  0  0  0
  5  7  1  0  0  0  0
  7  8  1  6  0  0  0
  7  9  1  0  0  0  0
  7 21  1  0  0  0  0
  9 10  1  0  0  0  0
  9 32  1  0  0  0  0
  9 33  1  0  0  0  0
 10 11  1  0  0  0  0
 10 34  1  0  0  0  0
 11 12  2  0  0  0  0
 11 13  1  0  0  0  0
 13 14  1  0  0  0  0
 13 35  1  0  0  0  0
 13 36  1  0  0  0  0
 14 19  1  0  0  0  0
 14 15  2  0  0  0  0
 15 16  1  0  0  0  0
 15 20  1  0  0  0  0
 16 17  2  0  0  0  0
 17 18  1  0  0  0  0
 17 19  1  0  0  0  0
 20 37  1  0  0  0  0
 20 38  1  0  0  0  0
 20 39  1  0  0  0  0
 21 26  1  0  0  0  0
 21 22  1  0  0  0  0
 22 23  1  0  0  0  0
 22 40  1  0  0  0  0
 22 41  1  0  0  0  0
 23 24  1  0  0  0  0
 23 42  1  0  0  0  0
 23 43  1  0  0  0  0
 24 25  1  0  0  0  0
 25 26  1  0  0  0  0
 25 44  1  0  0  0  0
 25 45  1  0  0  0  0
 26 46  1  0  0  0  0
 26 47  1  0  0  0  0
M  END
$$$$
ZINC09271582
 OpenBabel01252620473D

 62 65  0  0  1  0  0  0  0  0999 V2000
    1.2686    1.7086    0.1562 C   0  0  0  0  0  0  0  0  0  0  0  0
    0.6855    0.3191    0.1386 C   0  0  0  0  0  0  0  0  0  0  0  0
    0.5886   -0.4217   -1.0337 C   0  0  0  0  0  0  0  0  0  0  0  0
   -0.1582   -1.9195   -0.4107 S   0  0  0  0  0  0  0  0  0  0  0  0
   -0.2663   -1.4699    1.2074 C   0  0  0  0  0  0  0  0  0  0  0  0
    0.2465   -0.2606    1.2274 N   0  0  0  0  0  0  0  0  0  0  0  0
   -0.8161   -2.2680    2.3615 C   0  0  0  0  0  0  0  0  0  0  0  0
    0.9875   -0.0708   -2.4006 C   0  0  0  0  0  0  0  0  0  0  0  0
    0.9106   -1.0752   -3.4683 C   0  0  0  0  0  0  0  0  0  0  0  0
    0.5850   -2.5414   -3.3043 C   0  0  1  0  0  0  0  0  0  0  0  0
   -0.4117   -2.6588   -2.8788 H   0  0  0  0  0  0  0  0  0  0  0  0
    0.6306   -3.1232   -4.6510 N   0  0  0  0  0  0  0  0  0  0  0  0
    0.9422   -2.1402   -5.5152 C   0  0  0  0  0  0  0  0  0  0  0  0
    1.0619   -2.2797   -6.7163 O   0  0  0  0  0  0  0  0  0  0  0  0
    1.1117   -0.8653   -4.7891 C   0  0  0  0  0  0  0  0  0  0  0  0
    1.4217    0.3245   -5.3557 O   0  5  0  0  0  0  0  0  0  0  0  0
    0.3814   -4.5256   -4.9935 C   0  0  0  0  0  0  0  0  0  0  0  0
   -1.1074   -4.7224   -5.2861 C   0  0  0  0  0  0  0  0  0  0  0  0
   -1.3573   -6.1286   -5.6295 N   0  0  0  0  0  0  0  0  0  0  0  0
   -0.7080   -6.4842   -6.8997 C   0  0  0  0  0  0  0  0  0  0  0  0
   -0.9431   -7.9691   -7.1887 C   0  0  0  0  0  0  0  0  0  0  0  0
   -2.3493   -8.2290   -7.2081 O   0  0  0  0  0  0  0  0  0  0  0  0
   -3.0134   -7.8949   -5.9864 C   0  0  0  0  0  0  0  0  0  0  0  0
   -2.7993   -6.4092   -5.6852 C   0  0  0  0  0  0  0  0  0  0  0  0
    1.6087   -3.2038   -2.4187 C   0  0  0  0  0  0  0  0  0  0  0  0
    2.9528   -2.9261   -2.5881 C   0  0  0  0  0  0  0  0  0  0  0  0
    3.8942   -3.5318   -1.7776 C   0  0  0  0  0  0  0  0  0  0  0  0
    3.4964   -4.4187   -0.7940 C   0  0  0  0  0  0  0  0  0  0  0  0
    2.1516   -4.7013   -0.6190 C   0  0  0  0  0  0  0  0  0  0  0  0
    1.2030   -4.0865   -1.4312 C   0  0  0  0  0  0  0  0  0  0  0  0
   -0.1188   -4.3564   -1.2596 O   0  0  0  0  0  0  0  0  0  0  0  0
   -0.6304   -5.5271   -1.8999 C   0  0  0  0  0  0  0  0  0  0  0  0
    1.7587   -5.5732    0.3478 O   0  0  0  0  0  0  0  0  0  0  0  0
    2.7865   -6.1617    1.1473 C   0  0  0  0  0  0  0  0  0  0  0  0
    1.3828    1.0542   -2.6500 O   0  0  0  0  0  0  0  0  0  0  0  0
    2.3434    1.6495    0.3277 H   0  0  0  0  0  0  0  0  0  0  0  0
    1.0797    2.1942   -0.8012 H   0  0  0  0  0  0  0  0  0  0  0  0
    0.8046    2.2873    0.9549 H   0  0  0  0  0  0  0  0  0  0  0  0
   -0.0153   -2.8547    2.8116 H   0  0  0  0  0  0  0  0  0  0  0  0
   -1.2326   -1.5900    3.1064 H   0  0  0  0  0  0  0  0  0  0  0  0
   -1.5979   -2.9365    2.0012 H   0  0  0  0  0  0  0  0  0  0  0  0
    0.9635   -4.7932   -5.8754 H   0  0  0  0  0  0  0  0  0  0  0  0
    0.6746   -5.1613   -4.1580 H   0  0  0  0  0  0  0  0  0  0  0  0
   -1.6895   -4.4548   -4.4042 H   0  0  0  0  0  0  0  0  0  0  0  0
   -1.4006   -4.0867   -6.1216 H   0  0  0  0  0  0  0  0  0  0  0  0
   -1.1321   -5.8850   -7.7055 H   0  0  0  0  0  0  0  0  0  0  0  0
    0.3626   -6.2925   -6.8274 H   0  0  0  0  0  0  0  0  0  0  0  0
   -0.5125   -8.2241   -8.1570 H   0  0  0  0  0  0  0  0  0  0  0  0
   -0.4725   -8.5703   -6.4107 H   0  0  0  0  0  0  0  0  0  0  0  0
   -4.0801   -8.0962   -6.0851 H   0  0  0  0  0  0  0  0  0  0  0  0
   -2.6031   -8.4939   -5.1734 H   0  0  0  0  0  0  0  0  0  0  0  0
   -3.2553   -6.1628   -4.7263 H   0  0  0  0  0  0  0  0  0  0  0  0
   -3.2568   -5.8088   -6.4715 H   0  0  0  0  0  0  0  0  0  0  0  0
    3.2675   -2.2346   -3.3557 H   0  0  0  0  0  0  0  0  0  0  0  0
    4.9430   -3.3124   -1.9130 H   0  0  0  0  0  0  0  0  0  0  0  0
    4.2341   -4.8912   -0.1625 H   0  0  0  0  0  0  0  0  0  0  0  0
   -0.0343   -6.3913   -1.6068 H   0  0  0  0  0  0  0  0  0  0  0  0
   -1.6668   -5.6818   -1.5998 H   0  0  0  0  0  0  0  0  0  0  0  0
   -0.5802   -5.4010   -2.9814 H   0  0  0  0  0  0  0  0  0  0  0  0
    2.3380   -6.8352    1.8776 H   0  0  0  0  0  0  0  0  0  0  0  0
    3.4687   -6.7217    0.5076 H   0  0  0  0  0  0  0  0  0  0  0  0
    3.3370   -5.3772    1.6666 H   0  0  0  0  0  0  0  0  0  0  0  0
  1  2  1  0  0  0  0
  1 36  1  0  0  0  0
  1 37  1  0  0  0  0
  1 38  1  0  0  0  0
  2  6  1  0  0  0  0
  2  3  2  0  0  0  0
  3  4  1  0  0  0  0
  3  8  1  0  0  0  0
  4  5  1  0  0  0  0
  5  6  2  0  0  0  0
  5  7  1  0  0  0  0
  7 39  1  0  0  0  0
  7 40  1  0  0  0  0
  7 41  1  0  0  0  0
  8  9  1  0  0  0  0
  8 35  2  0  0  0  0
  9 15  2  0  0  0  0
  9 10  1  0  0  0  0
 10 12  1  0  0  0  0
 10 25  1  0  0  0  0
 10 11  1  1  0  0  0
 12 17  1  0  0  0  0
 12 13  1  0  0  0  0
 13 14  2  0  0  0  0
 13 15  1  0  0  0  0
 15 16  1  0  0  0  0
 17 18  1  0  0  0  0
 17 42  1  0  0  0  0
 17 43  1  0  0  0  0
 18 19  1  0  0  0  0
 18 44  1  0  0  0  0
 18 45  1  0  0  0  0
 19 24  1  0  0  0  0
 19 20  1  0  0  0  0
 20 21  1  0  0  0  0
 20 46  1  0  0  0  0
 20 47  1  0  0  0  0
 21 22  1  0  0  0  0
 21 48  1  0  0  0  0
 21 49  1  0  0  0  0
 22 23  1  0  0  0  0
 23 24  1  0  0  0  0
 23 50  1  0  0  0  0
 23 51  1  0  0  0  0
 24 52  1  0  0  0  0
 24 53  1  0  0  0  0
 25 30  2  0  0  0  0
 25 26  1  0  0  0  0
 26 27  2  0  0  0  0
 26 54  1  0  0  0  0
 27 28  1  0  0  0  0
 27 55  1  0  0  0  0
 28 29  2  0  0  0  0
 28 56  1  0  0  0  0
 29 30  1  0  0  0  0
 29 33  1  0  0  0  0
 30 31  1  0  0  0  0
 31 32  1  0  0  0  0
 32 57  1  0  0  0  0
 32 58  1  0  0  0  0
 32 59  1  0  0  0  0
 33 34  1  0  0  0  0
 34 60  1  0  0  0  0
 34 61  1  0  0  0  0
 34 62  1  0  0  0  0
M  CHG  1  16  -1
M  END
$$$$
ZINC59761207
 OpenBabel01252620473D

 41 42  0  0  0  0  0  0  0  0999 V2000
    5.7865    1.5735    5.7260 C   0  0  0  0  0  0  0  0  0  0  0  0
    5.8117    0.0438    5.7101 C   0  0  0  0  0  0  0  0  0  0  0  0
    4.5795   -0.4716    5.0121 C   0  0  0  0  0  0  0  0  0  0  0  0
    3.7618    0.3078    4.5708 O   0  0  0  0  0  0  0  0  0  0  0  0
    4.3863   -1.7988    4.8782 N   0  0  0  0  0  0  0  0  0  0  0  0
    3.1885   -2.2998    4.1996 C   0  0  0  0  0  0  0  0  0  0  0  0
    3.2133   -3.8065    4.1840 C   0  0  0  0  0  0  0  0  0  0  0  0
    4.1403   -4.4031    4.6898 O   0  0  0  0  0  0  0  0  0  0  0  0
    2.2054   -4.4911    3.6078 N   0  0  0  0  0  0  0  0  0  0  0  0
    2.2742   -5.8850    3.5071 C   0  0  0  0  0  0  0  0  0  0  0  0
    1.7469   -6.5292    2.3956 C   0  0  0  0  0  0  0  0  0  0  0  0
    1.8164   -7.9052    2.2991 C   0  0  0  0  0  0  0  0  0  0  0  0
    2.4102   -8.6414    3.3078 C   0  0  0  0  0  0  0  0  0  0  0  0
    2.9359   -8.0030    4.4161 C   0  0  0  0  0  0  0  0  0  0  0  0
    2.8751   -6.6268    4.5157 C   0  0  0  0  0  0  0  0  0  0  0  0
    2.4969  -10.3967    3.1810 S   0  0  0  0  0  0  0  0  0  0  0  0
    2.6125  -10.8945    4.5069 O   0  0  0  0  0  0  0  0  0  0  0  0
    1.4487  -10.7929    2.3072 O   0  0  0  0  0  0  0  0  0  0  0  0
    3.9174  -10.7625    2.4125 N   0  0  0  0  0  2  0  0  0  0  0  0
    4.2545  -12.0834    2.1732 C   0  0  0  0  0  0  0  0  0  0  0  0
    3.4267  -13.0425    2.5607 N   0  0  0  0  0  0  0  0  0  0  0  0
    3.7185  -14.3149    2.3468 C   0  0  0  0  0  0  0  0  0  0  0  0
    4.9061  -14.6382    1.7095 C   0  0  0  0  0  0  0  0  0  0  0  0
    5.7490  -13.6102    1.3174 C   0  0  0  0  0  0  0  0  0  0  0  0
    5.3948  -12.3584    1.5572 N   0  0  0  0  0  0  0  0  0  0  0  0
    4.8982    1.9168    6.2562 H   0  0  0  0  0  0  0  0  0  0  0  0
    6.6777    1.9463    6.2309 H   0  0  0  0  0  0  0  0  0  0  0  0
    5.7657    1.9472    4.7023 H   0  0  0  0  0  0  0  0  0  0  0  0
    6.7000   -0.2995    5.1799 H   0  0  0  0  0  0  0  0  0  0  0  0
    5.8324   -0.3299    6.7338 H   0  0  0  0  0  0  0  0  0  0  0  0
    5.0403   -2.4221    5.2311 H   0  0  0  0  0  0  0  0  0  0  0  0
    2.3002   -1.9565    4.7299 H   0  0  0  0  0  0  0  0  0  0  0  0
    3.1677   -1.9261    3.1759 H   0  0  0  0  0  0  0  0  0  0  0  0
    1.4322   -4.0175    3.2630 H   0  0  0  0  0  0  0  0  0  0  0  0
    1.2826   -5.9549    1.6076 H   0  0  0  0  0  0  0  0  0  0  0  0
    1.4061   -8.4068    1.4351 H   0  0  0  0  0  0  0  0  0  0  0  0
    3.3988   -8.5808    5.2025 H   0  0  0  0  0  0  0  0  0  0  0  0
    3.2904   -6.1284    5.3791 H   0  0  0  0  0  0  0  0  0  0  0  0
    3.0399  -15.0923    2.6653 H   0  0  0  0  0  0  0  0  0  0  0  0
    5.1691  -15.6689    1.5227 H   0  0  0  0  0  0  0  0  0  0  0  0
    6.6819  -13.8283    0.8188 H   0  0  0  0  0  0  0  0  0  0  0  0
  1  2  1  0  0  0  0
  1 26  1  0  0  0  0
  1 27  1  0  0  0  0
  1 28  1  0  0  0  0
  2  3  1  0  0  0  0
  2 29  1  0  0  0  0
  2 30  1  0  0  0  0
  3  4  2  0  0  0  0
  3  5  1  0  0  0  0
  5  6  1  0  0  0  0
  5 31  1  0  0  0  0
  6  7  1  0  0  0  0
  6 32  1  0  0  0  0
  6 33  1  0  0  0  0
  7  8  2  0  0  0  0
  7  9  1  0  0  0  0
  9 10  1  0  0  0  0
  9 34  1  0  0  0  0
 10 15  2  0  0  0  0
 10 11  1  0  0  0  0
 11 12  2  0  0  0  0
 11 35  1  0  0  0  0
 12 13  1  0  0  0  0
 12 36  1  0  0  0  0
 13 14  2  0  0  0  0
 13 16  1  0  0  0  0
 14 15  1  0  0  0  0
 14 37  1  0  0  0  0
 15 38  1  0  0  0  0
 16 17  2  0  0  0  0
 16 18  2  0  0  0  0
 16 19  1  0  0  0  0
 19 20  1  0  0  0  0
 20 25  2  0  0  0  0
 20 21  1  0  0  0  0
 21 22  2  0  0  0  0
 22 23  1  0  0  0  0
 22 39  1  0  0  0  0
 23 24  2  0  0  0  0
 23 40  1  0  0  0  0
 24 25  1  0  0  0  0
 24 41  1  0  0  0  0
M  END
$$$$
ZINC03838320
 OpenBabel01252620473D

 54 56  0  0  0  0  0  0  0  0999 V2000
   -0.0178    1.4608    0.0101 C   0  0  0  0  0  0  0  0  0  0  0  0
    0.0021   -0.0041    0.0020 N   0  0  0  0  0  0  0  0  0  0  0  0
    0.0086   -0.8126   -1.0981 C   0  0  0  0  0  0  0  0  0  0  0  0
    0.0273   -2.0761   -0.7087 N   0  0  0  0  0  0  0  0  0  0  0  0
    0.0336   -2.1396    0.6207 C   0  0  0  0  0  0  0  0  0  0  0  0
    0.0238   -0.8345    1.1065 C   0  0  0  0  0  0  0  0  0  0  0  0
    0.0341   -0.6204    2.5005 C   0  0  0  0  0  0  0  0  0  0  0  0
    0.0226    0.5120    2.9498 O   0  0  0  0  0  0  0  0  0  0  0  0
    0.0564   -1.6834    3.3309 N   0  0  0  0  0  0  0  0  0  0  0  0
    0.0694   -2.9382    2.8497 C   0  0  0  0  0  0  0  0  0  0  0  0
    0.0898   -3.8713    3.6292 O   0  0  0  0  0  0  0  0  0  0  0  0
    0.0514   -3.1889    1.5272 N   0  0  0  0  0  0  0  0  0  0  0  0
    0.0683   -4.5721    1.0446 C   0  0  0  0  0  0  0  0  0  0  0  0
    1.5165   -5.0340    0.8709 C   0  0  0  0  0  0  0  0  0  0  0  0
    1.5340   -6.4785    0.3669 C   0  0  0  0  0  0  0  0  0  0  0  0
    2.8867   -6.9100    0.2047 O   0  0  0  0  0  0  0  0  0  0  0  0
    3.2812   -8.3827   -0.3124 P   0  0  0  0  0  0  0  0  0  0  0  0
    2.5979   -9.4571    0.6003 O   0  0  0  0  0  0  0  0  0  0  0  0
    2.7930   -8.5657   -1.7898 O   0  0  0  0  0  1  0  0  0  0  0  0
    4.8368   -8.5584   -0.2509 O   0  0  0  0  0  1  0  0  0  0  0  0
    0.0671   -1.4665    4.7797 C   0  0  0  0  0  0  0  0  0  0  0  0
   -1.3169   -1.4128    5.2780 C   0  0  0  0  0  0  0  0  0  0  0  0
   -2.4207   -1.3699    5.6755 C   0  0  0  0  0  0  0  0  0  0  0  0
   -0.0032   -0.3532   -2.4893 C   0  0  0  0  0  0  0  0  0  0  0  0
    0.0049   -1.2498   -3.4949 C   0  0  0  0  0  0  0  0  0  0  0  0
   -0.0070   -0.7881   -4.8930 C   0  0  0  0  0  0  0  0  0  0  0  0
   -0.0209    0.5805   -5.1806 C   0  0  0  0  0  0  0  0  0  0  0  0
   -0.0321    1.0083   -6.4915 C   0  0  0  0  0  0  0  0  0  0  0  0
   -0.0295    0.0882   -7.5244 C   0  0  0  0  0  0  0  0  0  0  0  0
   -0.0162   -1.2729   -7.2497 C   0  0  0  0  0  0  0  0  0  0  0  0
    0.0014   -1.7154   -5.9382 C   0  0  0  0  0  0  0  0  0  0  0  0
   -0.0147   -2.1713   -8.2695 O   0  0  0  0  0  0  0  0  0  0  0  0
   -0.0272   -1.6449   -9.5979 C   0  0  0  0  0  0  0  0  0  0  0  0
    1.0048    1.8381    0.0023 H   0  0  0  0  0  0  0  0  0  0  0  0
   -0.5450    1.8219   -0.8730 H   0  0  0  0  0  0  0  0  0  0  0  0
   -0.5280    1.8123    0.9069 H   0  0  0  0  0  0  0  0  0  0  0  0
   -0.4340   -5.2151    1.7673 H   0  0  0  0  0  0  0  0  0  0  0  0
   -0.4487   -4.6290    0.0867 H   0  0  0  0  0  0  0  0  0  0  0  0
    2.0187   -4.3909    0.1482 H   0  0  0  0  0  0  0  0  0  0  0  0
    2.0334   -4.9771    1.8288 H   0  0  0  0  0  0  0  0  0  0  0  0
    1.0318   -7.1216    1.0896 H   0  0  0  0  0  0  0  0  0  0  0  0
    1.0171   -6.5354   -0.5910 H   0  0  0  0  0  0  0  0  0  0  0  0
    0.5968   -2.2858    5.2658 H   0  0  0  0  0  0  0  0  0  0  0  0
    0.5704   -0.5257    5.0025 H   0  0  0  0  0  0  0  0  0  0  0  0
   -3.4080   -1.3315    6.0310 H   0  0  0  0  0  0  0  0  0  0  0  0
   -0.0185    0.7042   -2.7087 H   0  0  0  0  0  0  0  0  0  0  0  0
    0.0201   -2.3072   -3.2755 H   0  0  0  0  0  0  0  0  0  0  0  0
   -0.0233    1.3017   -4.3766 H   0  0  0  0  0  0  0  0  0  0  0  0
   -0.0432    2.0654   -6.7125 H   0  0  0  0  0  0  0  0  0  0  0  0
   -0.0383    0.4299   -8.5489 H   0  0  0  0  0  0  0  0  0  0  0  0
    0.0166   -2.7737   -5.7235 H   0  0  0  0  0  0  0  0  0  0  0  0
   -0.0245   -2.4664  -10.3144 H   0  0  0  0  0  0  0  0  0  0  0  0
   -0.9233   -1.0410   -9.7410 H   0  0  0  0  0  0  0  0  0  0  0  0
    0.8566   -1.0257   -9.7518 H   0  0  0  0  0  0  0  0  0  0  0  0
  1  2  1  0  0  0  0
  1 34  1  0  0  0  0
  1 35  1  0  0  0  0
  1 36  1  0  0  0  0
  2  6  1  0  0  0  0
  2  3  1  0  0  0  0
  3  4  2  0  0  0  0
  3 24  1  0  0  0  0
  4  5  1  0  0  0  0
  5 12  1  0  0  0  0
  5  6  2  0  0  0  0
  6  7  1  0  0  0  0
  7  8  2  0  0  0  0
  7  9  1  0  0  0  0
  9 10  1  0  0  0  0
  9 21  1  0  0  0  0
 10 11  2  0  0  0  0
 10 12  1  0  0  0  0
 12 13  1  0  0  0  0
 13 14  1  0  0  0  0
 13 37  1  0  0  0  0
 13 38  1  0  0  0  0
 14 15  1  0  0  0  0
 14 39  1  0  0  0  0
 14 40  1  0  0  0  0
 15 16  1  0  0  0  0
 15 41  1  0  0  0  0
 15 42  1  0  0  0  0
 16 17  1  0  0  0  0
 17 18  2  0  0  0  0
 17 19  1  0  0  0  0
 17 20  1  0  0  0  0
 21 22  1  0  0  0  0
 21 43  1  0  0  0  0
 21 44  1  0  0  0  0
 22 23  3  0  0  0  0
 23 45  1  0  0  0  0
 24 25  2  0  0  0  0
 24 46  1  0  0  0  0
 25 26  1  0  0  0  0
 25 47  1  0  0  0  0
 26 31  2  0  0  0  0
 26 27  1  0  0  0  0
 27 28  2  0  0  0  0
 27 48  1  0  0  0  0
 28 29  1  0  0  0  0
 28 49  1  0  0  0  0
 29 30  2  0  0  0  0
 29 50  1  0  0  0  0
 30 31  1  0  0  0  0
 30 32  1  0  0  0  0
 31 51  1  0  0  0  0
 32 33  1  0  0  0  0
 33 52  1  0  0  0  0
 33 53  1  0  0  0  0
 33 54  1  0  0  0  0
M  END
$$$$
ZINC39988991
 OpenBabel01252620473D

 30 30  0  0  1  0  0  0  0  0999 V2000
   -0.0621    1.6638   -0.1083 C   0  0  0  0  0  0  0  0  0  0  0  0
    0.0609    0.1403   -0.0388 C   0  0  2  0  0  0  0  0  0  0  0  0
   -0.9331   -0.3016    0.0312 H   0  0  0  0  0  0  0  0  0  0  0  0
    0.8680   -0.2437    1.1745 C   0  0  0  0  0  0  0  0  0  0  0  0
    0.4389   -0.0089    2.2914 O   0  0  0  0  0  0  0  0  0  0  0  0
    1.9500   -0.7891    1.0394 O   0  0  0  0  0  1  0  0  0  0  0  0
    0.7135   -0.3391   -1.2162 O   0  0  0  0  0  0  0  0  0  0  0  0
   -0.1782   -0.6545   -2.2874 C   0  0  0  0  0  0  0  0  0  0  0  0
    0.6254   -1.1550   -3.4893 C   0  0  0  0  0  0  0  0  0  0  0  0
    1.2818   -2.4235   -3.1456 N   0  0  0  0  0  0  0  0  0  0  0  0
    2.3990   -2.7032   -4.0593 C   0  0  0  0  0  0  0  0  0  0  0  0
    3.0902   -3.9999   -3.6298 C   0  0  0  0  0  0  0  0  0  0  0  0
    2.1310   -5.0605   -3.6068 O   0  0  0  0  0  0  0  0  0  0  0  0
    1.0294   -4.8215   -2.7265 C   0  0  0  0  0  0  0  0  0  0  0  0
    0.3174   -3.5331   -3.1470 C   0  0  0  0  0  0  0  0  0  0  0  0
    0.9318    2.1057   -0.1783 H   0  0  0  0  0  0  0  0  0  0  0  0
   -0.6459    1.9415   -0.9859 H   0  0  0  0  0  0  0  0  0  0  0  0
   -0.5599    2.0294    0.7898 H   0  0  0  0  0  0  0  0  0  0  0  0
   -0.8723   -1.4309   -1.9657 H   0  0  0  0  0  0  0  0  0  0  0  0
   -0.7367    0.2379   -2.5700 H   0  0  0  0  0  0  0  0  0  0  0  0
   -0.0444   -1.3101   -4.3351 H   0  0  0  0  0  0  0  0  0  0  0  0
    1.3808   -0.4154   -3.7548 H   0  0  0  0  0  0  0  0  0  0  0  0
    2.0196   -2.8122   -5.0753 H   0  0  0  0  0  0  0  0  0  0  0  0
    3.1134   -1.8807   -4.0232 H   0  0  0  0  0  0  0  0  0  0  0  0
    3.8830   -4.2416   -4.3376 H   0  0  0  0  0  0  0  0  0  0  0  0
    3.5162   -3.8729   -2.6345 H   0  0  0  0  0  0  0  0  0  0  0  0
    0.3319   -5.6573   -2.7812 H   0  0  0  0  0  0  0  0  0  0  0  0
    1.3955   -4.7184   -1.7051 H   0  0  0  0  0  0  0  0  0  0  0  0
   -0.4877   -3.3164   -2.4448 H   0  0  0  0  0  0  0  0  0  0  0  0
   -0.0953   -3.6554   -4.1484 H   0  0  0  0  0  0  0  0  0  0  0  0
  1  2  1  0  0  0  0
  1 16  1  0  0  0  0
  1 17  1  0  0  0  0
  1 18  1  0  0  0  0
  2  3  1  1  0  0  0
  2  4  1  0  0  0  0
  2  7  1  0  0  0  0
  4  5  2  0  0  0  0
  4  6  1  0  0  0  0
  7  8  1  0  0  0  0
  8  9  1  0  0  0  0
  8 19  1  0  0  0  0
  8 20  1  0  0  0  0
  9 10  1  0  0  0  0
  9 21  1  0  0  0  0
  9 22  1  0  0  0  0
 10 15  1  0  0  0  0
 10 11  1  0  0  0  0
 11 12  1  0  0  0  0
 11 23  1  0  0  0  0
 11 24  1  0  0  0  0
 12 13  1  0  0  0  0
 12 25  1  0  0  0  0
 12 26  1  0  0  0  0
 13 14  1  0  0  0  0
 14 15  1  0  0  0  0
 14 27  1  0  0  0  0
 14 28  1  0  0  0  0
 15 29  1  0  0  0  0
 15 30  1  0  0  0  0
M  END
$$$$
ZINC35566375
 OpenBabel01252620473D

 51 55  0  0  1  0  0  0  0  0999 V2000
   -1.2533    0.7798    1.0410 C   0  0  0  0  0  0  0  0  0  0  0  0
   -0.8945   -0.6636    0.7983 C   0  0  0  0  0  0  0  0  0  0  0  0
   -0.4804   -1.1176   -0.4486 C   0  0  0  0  0  0  0  0  0  0  0  0
   -0.2160   -2.8477   -0.0931 S   0  0  0  0  0  0  0  0  0  0  0  0
   -0.6410   -2.8181    1.5350 C   0  0  0  0  0  0  0  0  0  0  0  0
   -0.9501   -1.5597    1.7512 N   0  0  0  0  0  0  0  0  0  0  0  0
   -0.6583   -3.9634    2.5144 C   0  0  0  0  0  0  0  0  0  0  0  0
   -0.3088   -0.3814   -1.7053 C   0  0  0  0  0  0  0  0  0  0  0  0
   -0.4339    0.8304   -1.7234 O   0  0  0  0  0  0  0  0  0  0  0  0
    0.0134   -1.1043   -2.9412 C   0  0  0  0  0  0  0  0  0  0  0  0
    0.2962   -0.5572   -4.1459 C   0  0  0  0  0  0  0  0  0  0  0  0
    0.5625   -1.6349   -5.1185 C   0  0  0  0  0  0  0  0  0  0  0  0
    0.8460   -1.4643   -6.2878 O   0  0  0  0  0  0  0  0  0  0  0  0
    0.4453   -2.8341   -4.5198 N   0  0  0  0  0  0  0  0  0  0  0  0
    0.0999   -2.6031   -3.1121 C   0  0  2  0  0  0  0  0  0  0  0  0
    0.8740   -3.0106   -2.4620 H   0  0  0  0  0  0  0  0  0  0  0  0
   -1.2299   -3.2383   -2.7971 C   0  0  0  0  0  0  0  0  0  0  0  0
   -2.3950   -2.5087   -2.9364 C   0  0  0  0  0  0  0  0  0  0  0  0
   -3.6151   -3.0907   -2.6470 C   0  0  0  0  0  0  0  0  0  0  0  0
   -3.6730   -4.4041   -2.2180 C   0  0  0  0  0  0  0  0  0  0  0  0
   -2.5112   -5.1378   -2.0776 C   0  0  0  0  0  0  0  0  0  0  0  0
   -1.2858   -4.5576   -2.3724 C   0  0  0  0  0  0  0  0  0  0  0  0
   -0.1417   -5.2791   -2.2404 O   0  0  0  0  0  0  0  0  0  0  0  0
   -0.2650   -6.5988   -1.7063 C   0  0  0  0  0  0  0  0  0  0  0  0
    0.6246   -4.0666   -5.1229 C   0  0  0  0  0  0  0  0  0  0  0  0
    0.6298   -5.2590   -4.5736 N   0  0  0  0  0  0  0  0  0  0  0  0
    0.8185   -6.3877   -5.2909 C   0  0  0  0  0  0  0  0  0  0  0  0
    0.8471   -7.7231   -4.8258 C   0  0  0  0  0  0  0  0  0  0  0  0
    1.0522   -8.7629   -5.6941 C   0  0  0  0  0  0  0  0  0  0  0  0
    1.2384   -8.5472   -7.0532 C   0  0  0  0  0  0  0  0  0  0  0  0
    1.2164   -7.2532   -7.5427 C   0  0  0  0  0  0  0  0  0  0  0  0
    1.0115   -6.2058   -6.6794 C   0  0  0  0  0  0  0  0  0  0  0  0
    0.9001   -4.4406   -6.8487 S   0  0  0  0  0  0  0  0  0  0  0  0
    1.4965   -9.8868   -8.1267 Cl  0  0  0  0  0  0  0  0  0  0  0  0
    0.3291    0.7688   -4.4165 O   0  5  0  0  0  0  0  0  0  0  0  0
   -0.3627    1.3292    1.3463 H   0  0  0  0  0  0  0  0  0  0  0  0
   -1.6517    1.2143    0.1242 H   0  0  0  0  0  0  0  0  0  0  0  0
   -2.0049    0.8400    1.8281 H   0  0  0  0  0  0  0  0  0  0  0  0
    0.2823   -3.9850    3.0648 H   0  0  0  0  0  0  0  0  0  0  0  0
   -1.4849   -3.8319    3.2126 H   0  0  0  0  0  0  0  0  0  0  0  0
   -0.7847   -4.9016    1.9741 H   0  0  0  0  0  0  0  0  0  0  0  0
   -2.3524   -1.4828   -3.2712 H   0  0  0  0  0  0  0  0  0  0  0  0
   -4.5246   -2.5185   -2.7558 H   0  0  0  0  0  0  0  0  0  0  0  0
   -4.6274   -4.8563   -1.9923 H   0  0  0  0  0  0  0  0  0  0  0  0
   -2.5570   -6.1635   -1.7425 H   0  0  0  0  0  0  0  0  0  0  0  0
   -0.8881   -7.2015   -2.3671 H   0  0  0  0  0  0  0  0  0  0  0  0
    0.7231   -7.0519   -1.6256 H   0  0  0  0  0  0  0  0  0  0  0  0
   -0.7240   -6.5498   -0.7189 H   0  0  0  0  0  0  0  0  0  0  0  0
    0.7060   -7.9254   -3.7744 H   0  0  0  0  0  0  0  0  0  0  0  0
    1.0699   -9.7732   -5.3129 H   0  0  0  0  0  0  0  0  0  0  0  0
    1.3599   -7.0684   -8.5970 H   0  0  0  0  0  0  0  0  0  0  0  0
  1  2  1  0  0  0  0
  1 36  1  0  0  0  0
  1 37  1  0  0  0  0
  1 38  1  0  0  0  0
  2  6  1  0  0  0  0
  2  3  2  0  0  0  0
  3  4  1  0  0  0  0
  3  8  1  0  0  0  0
  4  5  1  0  0  0  0
  5  6  2  0  0  0  0
  5  7  1  0  0  0  0
  7 39  1  0  0  0  0
  7 40  1  0  0  0  0
  7 41  1  0  0  0  0
  8  9  2  0  0  0  0
  8 10  1  0  0  0  0
 10 15  1  0  0  0  0
 10 11  2  0  0  0  0
 11 12  1  0  0  0  0
 11 35  1  0  0  0  0
 12 13  2  0  0  0  0
 12 14  1  0  0  0  0
 14 15  1  0  0  0  0
 14 25  1  0  0  0  0
 15 16  1  1  0  0  0
 15 17  1  0  0  0  0
 17 22  2  0  0  0  0
 17 18  1  0  0  0  0
 18 19  2  0  0  0  0
 18 42  1  0  0  0  0
 19 20  1  0  0  0  0
 19 43  1  0  0  0  0
 20 21  2  0  0  0  0
 20 44  1  0  0  0  0
 21 22  1  0  0  0  0
 21 45  1  0  0  0  0
 22 23  1  0  0  0  0
 23 24  1  0  0  0  0
 24 46  1  0  0  0  0
 24 47  1  0  0  0  0
 24 48  1  0  0  0  0
 25 33  1  0  0  0  0
 25 26  2  0  0  0  0
 26 27  1  0  0  0  0
 27 32  2  0  0  0  0
 27 28  1  0  0  0  0
 28 29  2  0  0  0  0
 28 49  1  0  0  0  0
 29 30  1  0  0  0  0
 29 50  1  0  0  0  0
 30 31  2  0  0  0  0
 30 34  1  0  0  0  0
 31 32  1  0  0  0  0
 31 51  1  0  0  0  0
 32 33  1  0  0  0  0
M  CHG  1  35  -1
M  END
$$$$
ZINC59241016
 OpenBabel01252620473D

 34 35  0  0  0  0  0  0  0  0999 V2000
   -0.0173    1.4248    0.0099 C   0  0  0  0  0  0  0  0  0  0  0  0
    0.0021   -0.0041    0.0020 O   0  0  0  0  0  0  0  0  0  0  0  0
    0.6518   -0.5703   -1.1379 C   0  0  0  0  0  0  0  0  0  0  0  0
    0.6131   -2.0967   -1.0411 C   0  0  0  0  0  0  0  0  0  0  0  0
    1.4379   -2.8155   -2.4880 S   0  0  0  0  0  0  0  0  0  0  0  0
    1.3110   -4.5540   -2.2312 C   0  0  0  0  0  0  0  0  0  0  0  0
    0.7491   -5.2133   -1.2362 N   0  0  0  0  0  0  0  0  0  0  0  0
    0.7626   -6.5889   -1.2328 N   0  0  0  0  0  0  0  0  0  0  0  0
    1.3368   -7.2422   -2.2238 C   0  0  0  0  0  0  0  0  0  0  0  0
    1.9017   -5.8953   -3.2523 S   0  0  0  0  0  0  0  0  0  0  0  0
    1.4638   -8.6125   -2.4189 N   0  0  0  0  0  2  0  0  0  0  0  0
    0.8388   -9.6685   -1.3069 S   0  0  0  0  0  0  0  0  0  0  0  0
    1.5881   -9.4913   -0.1126 O   0  0  0  0  0  0  0  0  0  0  0  0
   -0.5732   -9.5153   -1.3502 O   0  0  0  0  0  0  0  0  0  0  0  0
    1.1865  -11.2972   -1.8825 C   0  0  0  0  0  0  0  0  0  0  0  0
    0.2865  -11.9456   -2.7078 C   0  0  0  0  0  0  0  0  0  0  0  0
    0.5592  -13.2231   -3.1592 C   0  0  0  0  0  0  0  0  0  0  0  0
    1.7322  -13.8525   -2.7858 C   0  0  0  0  0  0  0  0  0  0  0  0
    2.6323  -13.2040   -1.9615 C   0  0  0  0  0  0  0  0  0  0  0  0
    2.3615  -11.9244   -1.5134 C   0  0  0  0  0  0  0  0  0  0  0  0
    3.8879  -13.8781   -1.5614 N   0  0  0  0  0  4  0  0  0  0  0  0
    4.1260  -14.9960   -1.9556 O   0  0  0  0  0  0  0  0  0  0  0  0
    4.6752  -13.3109   -0.8403 O   0  5  0  0  0  0  0  0  0  0  0  0
    1.0053    1.8021    0.0021 H   0  0  0  0  0  0  0  0  0  0  0  0
   -0.5445    1.7859   -0.8732 H   0  0  0  0  0  0  0  0  0  0  0  0
   -0.5275    1.7763    0.9067 H   0  0  0  0  0  0  0  0  0  0  0  0
    0.1385   -0.2506   -2.0447 H   0  0  0  0  0  0  0  0  0  0  0  0
    1.6883   -0.2344   -1.1694 H   0  0  0  0  0  0  0  0  0  0  0  0
    1.1264   -2.4164   -0.1342 H   0  0  0  0  0  0  0  0  0  0  0  0
   -0.4234   -2.4326   -1.0095 H   0  0  0  0  0  0  0  0  0  0  0  0
   -0.6298  -11.4539   -2.9994 H   0  0  0  0  0  0  0  0  0  0  0  0
   -0.1442  -13.7298   -3.8033 H   0  0  0  0  0  0  0  0  0  0  0  0
    1.9449  -14.8511   -3.1380 H   0  0  0  0  0  0  0  0  0  0  0  0
    3.0666  -11.4163   -0.8723 H   0  0  0  0  0  0  0  0  0  0  0  0
  1  2  1  0  0  0  0
  1 24  1  0  0  0  0
  1 25  1  0  0  0  0
  1 26  1  0  0  0  0
  2  3  1  0  0  0  0
  3  4  1  0  0  0  0
  3 27  1  0  0  0  0
  3 28  1  0  0  0  0
  4  5  1  0  0  0  0
  4 29  1  0  0  0  0
  4 30  1  0  0  0  0
  5  6  1  0  0  0  0
  6 10  1  0  0  0  0
  6  7  2  0  0  0  0
  7  8  1  0  0  0  0
  8  9  2  0  0  0  0
  9 10  1  0  0  0  0
  9 11  1  0  0  0  0
 11 12  1  0  0  0  0
 12 13  2  0  0  0  0
 12 14  2  0  0  0  0
 12 15  1  0  0  0  0
 15 20  2  0  0  0  0
 15 16  1  0  0  0  0
 16 17  2  0  0  0  0
 16 31  1  0  0  0  0
 17 18  1  0  0  0  0
 17 32  1  0  0  0  0
 18 19  2  0  0  0  0
 18 33  1  0  0  0  0
 19 20  1  0  0  0  0
 19 21  1  0  0  0  0
 20 34  1  0  0  0  0
 21 22  2  0  0  0  0
 21 23  1  0  0  0  0
M  CHG  1  23  -1
M  END
$$$$
ZINC42445027
 OpenBabel01252620473D

 36 36  0  0  0  0  0  0  0  0999 V2000
    0.3042    1.4292   -0.0002 C   0  0  0  0  0  0  0  0  0  0  0  0
    0.2046   -0.0323   -0.0179 N   0  0  0  0  0  0  0  0  0  0  0  0
    0.4378   -0.7973    1.2095 C   0  0  0  0  0  0  0  0  0  0  0  0
   -0.8837   -0.9720    1.9605 C   0  0  0  0  0  0  0  0  0  0  0  0
   -0.6402   -1.7710    3.2423 C   0  0  0  0  0  0  0  0  0  0  0  0
   -1.9419   -1.9430    3.9820 C   0  0  0  0  0  0  0  0  0  0  0  0
   -2.9691   -1.4704    3.5261 O   0  0  0  0  0  0  0  0  0  0  0  0
   -1.9677   -2.5548    5.0363 O   0  0  0  0  0  1  0  0  0  0  0  0
   -0.1016   -0.6730   -1.1634 C   0  0  0  0  0  0  0  0  0  0  0  0
   -0.3594   -1.8611   -1.1452 O   0  0  0  0  0  0  0  0  0  0  0  0
   -0.1220    0.0032   -2.3291 N   0  0  0  0  0  0  0  0  0  0  0  0
   -0.3535   -0.7395   -3.5788 C   0  0  0  0  0  0  0  0  0  0  0  0
   -1.3291   -0.0864   -4.5903 C   0  0  0  0  0  0  0  0  0  0  0  0
   -2.5684    0.4626   -3.9566 C   0  0  0  0  0  0  0  0  0  0  0  0
   -2.2908    2.1943   -3.4312 S   0  0  0  0  0  0  0  0  0  0  0  0
   -1.2722    2.0912   -2.0139 C   0  0  0  0  0  0  0  0  0  0  0  0
    0.0759    1.4179   -2.3104 C   0  0  0  0  0  0  0  0  0  0  0  0
    1.2954    1.7300   -0.3395 H   0  0  0  0  0  0  0  0  0  0  0  0
   -0.4507    1.8529   -0.6625 H   0  0  0  0  0  0  0  0  0  0  0  0
    0.1420    1.7922    1.0147 H   0  0  0  0  0  0  0  0  0  0  0  0
    0.8436   -1.7766    0.9557 H   0  0  0  0  0  0  0  0  0  0  0  0
    1.1470   -0.2628    1.8416 H   0  0  0  0  0  0  0  0  0  0  0  0
   -1.2896    0.0073    2.2143 H   0  0  0  0  0  0  0  0  0  0  0  0
   -1.5929   -1.5065    1.3284 H   0  0  0  0  0  0  0  0  0  0  0  0
   -0.2343   -2.7502    2.9885 H   0  0  0  0  0  0  0  0  0  0  0  0
    0.0690   -1.2365    3.8744 H   0  0  0  0  0  0  0  0  0  0  0  0
    0.6074   -0.8776   -4.0746 H   0  0  0  0  0  0  0  0  0  0  0  0
   -0.7411   -1.7251   -3.3211 H   0  0  0  0  0  0  0  0  0  0  0  0
   -0.8102    0.7243   -5.1018 H   0  0  0  0  0  0  0  0  0  0  0  0
   -1.6170   -0.8338   -5.3296 H   0  0  0  0  0  0  0  0  0  0  0  0
   -3.3871    0.4297   -4.6755 H   0  0  0  0  0  0  0  0  0  0  0  0
   -2.8283   -0.1417   -3.0875 H   0  0  0  0  0  0  0  0  0  0  0  0
   -1.0902    3.0973   -1.6361 H   0  0  0  0  0  0  0  0  0  0  0  0
   -1.7917    1.5168   -1.2469 H   0  0  0  0  0  0  0  0  0  0  0  0
    0.7916    1.6794   -1.5310 H   0  0  0  0  0  0  0  0  0  0  0  0
    0.4479    1.7505   -3.2795 H   0  0  0  0  0  0  0  0  0  0  0  0
  1  2  1  0  0  0  0
  1 18  1  0  0  0  0
  1 19  1  0  0  0  0
  1 20  1  0  0  0  0
  2  3  1  0  0  0  0
  2  9  1  0  0  0  0
  3  4  1  0  0  0  0
  3 21  1  0  0  0  0
  3 22  1  0  0  0  0
  4  5  1  0  0  0  0
  4 23  1  0  0  0  0
  4 24  1  0  0  0  0
  5  6  1  0  0  0  0
  5 25  1  0  0  0  0
  5 26  1  0  0  0  0
  6  7  2  0  0  0  0
  6  8  1  0  0  0  0
  9 10  2  0  0  0  0
  9 11  1  0  0  0  0
 11 17  1  0  0  0  0
 11 12  1  0  0  0  0
 12 13  1  0  0  0  0
 12 27  1  0  0  0  0
 12 28  1  0  0  0  0
 13 14  1  0  0  0  0
 13 29  1  0  0  0  0
 13 30  1  0  0  0  0
 14 15  1  0  0  0  0
 14 31  1  0  0  0  0
 14 32  1  0  0  0  0
 15 16  1  0  0  0  0
 16 17  1  0  0  0  0
 16 33  1  0  0  0  0
 16 34  1  0  0  0  0
 17 35  1  0  0  0  0
 17 36  1  0  0  0  0
M  END
$$$$
ZINC40060221
 OpenBabel01252620473D

 50 51  0  0  0  0  0  0  0  0999 V2000
    0.1809    1.4960    0.9291 C   0  0  0  0  0  0  0  0  0  0  0  0
    0.1990   -0.0338    0.9473 C   0  0  0  0  0  0  0  0  0  0  0  0
   -1.1638   -0.5404    0.7668 N   0  0  0  0  0  0  0  0  0  0  0  0
   -1.7122   -0.7029   -0.5819 C   0  0  0  0  0  0  0  0  0  0  0  0
   -1.2897   -2.0617   -1.1440 C   0  0  0  0  0  0  0  0  0  0  0  0
   -2.0842   -0.9294    2.0874 S   0  0  0  0  0  0  0  0  0  0  0  0
   -3.0541   -1.8685    1.6440 O   0  0  0  0  0  0  0  0  0  0  0  0
   -1.1782   -1.2117    3.1450 O   0  0  0  0  0  0  0  0  0  0  0  0
   -2.9660    0.5230    2.5539 C   0  0  0  0  0  0  0  0  0  0  0  0
   -2.4067    1.4112    3.4546 C   0  0  0  0  0  0  0  0  0  0  0  0
   -3.0954    2.5519    3.8238 C   0  0  0  0  0  0  0  0  0  0  0  0
   -4.3448    2.8082    3.2934 C   0  0  0  0  0  0  0  0  0  0  0  0
   -4.9091    1.9187    2.3883 C   0  0  0  0  0  0  0  0  0  0  0  0
   -4.2121    0.7760    2.0156 C   0  0  0  0  0  0  0  0  0  0  0  0
   -6.1722    2.1748    1.8500 N   0  0  0  0  0  0  0  0  0  0  0  0
   -7.2081    0.9215    1.5358 S   0  0  0  0  0  0  0  0  0  0  0  0
   -8.4391    1.5040    1.1304 O   0  0  0  0  0  0  0  0  0  0  0  0
   -6.4960    0.0007    0.7208 O   0  0  0  0  0  0  0  0  0  0  0  0
   -7.5172    0.1050    3.0663 C   0  0  0  0  0  0  0  0  0  0  0  0
   -6.7770   -0.9535    3.5976 C   0  0  0  0  0  0  0  0  0  0  0  0
   -7.3607   -1.2871    4.8051 C   0  0  0  0  0  0  0  0  0  0  0  0
   -8.4327   -0.4417    4.9929 N   0  0  0  0  0  0  0  0  0  0  0  0
   -8.5124    0.3967    3.9398 C   0  0  0  0  0  0  0  0  0  0  0  0
   -9.3330   -0.4485    6.1486 C   0  0  0  0  0  0  0  0  0  0  0  0
   -6.9219   -2.3429    5.7154 C   0  0  0  0  0  0  0  0  0  0  0  0
   -5.9481   -3.0300    5.4324 O   0  0  0  0  0  0  0  0  0  0  0  0
   -7.5279   -2.5407    6.7614 O   0  0  0  0  0  1  0  0  0  0  0  0
   -5.0949    4.0515    3.6967 C   0  0  0  0  0  0  0  0  0  0  0  0
    1.1948    1.8729    1.0634 H   0  0  0  0  0  0  0  0  0  0  0  0
   -0.2123    1.8434   -0.0263 H   0  0  0  0  0  0  0  0  0  0  0  0
   -0.4526    1.8616    1.7372 H   0  0  0  0  0  0  0  0  0  0  0  0
    0.8325   -0.3993    0.1392 H   0  0  0  0  0  0  0  0  0  0  0  0
    0.5922   -0.3811    1.9028 H   0  0  0  0  0  0  0  0  0  0  0  0
   -2.8001   -0.6491   -0.5406 H   0  0  0  0  0  0  0  0  0  0  0  0
   -1.3334    0.0906   -1.2262 H   0  0  0  0  0  0  0  0  0  0  0  0
   -1.6977   -2.1826   -2.1474 H   0  0  0  0  0  0  0  0  0  0  0  0
   -0.2018   -2.1155   -1.1852 H   0  0  0  0  0  0  0  0  0  0  0  0
   -1.6685   -2.8551   -0.4997 H   0  0  0  0  0  0  0  0  0  0  0  0
   -1.4300    1.2131    3.8708 H   0  0  0  0  0  0  0  0  0  0  0  0
   -2.6562    3.2430    4.5279 H   0  0  0  0  0  0  0  0  0  0  0  0
   -4.6463    0.0843    1.3089 H   0  0  0  0  0  0  0  0  0  0  0  0
   -6.4427    3.0868    1.6603 H   0  0  0  0  0  0  0  0  0  0  0  0
   -5.9130   -1.4221    3.1500 H   0  0  0  0  0  0  0  0  0  0  0  0
   -9.2516    1.1735    3.8113 H   0  0  0  0  0  0  0  0  0  0  0  0
   -8.9436    0.2198    6.9166 H   0  0  0  0  0  0  0  0  0  0  0  0
  -10.3224   -0.1105    5.8405 H   0  0  0  0  0  0  0  0  0  0  0  0
   -9.4030   -1.4600    6.5487 H   0  0  0  0  0  0  0  0  0  0  0  0
   -4.8407    4.8655    3.0178 H   0  0  0  0  0  0  0  0  0  0  0  0
   -6.1669    3.8604    3.6496 H   0  0  0  0  0  0  0  0  0  0  0  0
   -4.8195    4.3279    4.7145 H   0  0  0  0  0  0  0  0  0  0  0  0
  1  2  1  0  0  0  0
  1 29  1  0  0  0  0
  1 30  1  0  0  0  0
  1 31  1  0  0  0  0
  2  3  1  0  0  0  0
  2 32  1  0  0  0  0
  2 33  1  0  0  0  0
  3  4  1  0  0  0  0
  3  6  1  0  0  0  0
  4  5  1  0  0  0  0
  4 34  1  0  0  0  0
  4 35  1  0  0  0  0
  5 36  1  0  0  0  0
  5 37  1  0  0  0  0
  5 38  1  0  0  0  0
  6  7  2  0  0  0  0
  6  8  2  0  0  0  0
  6  9  1  0  0  0  0
  9 14  2  0  0  0  0
  9 10  1  0  0  0  0
 10 11  2  0  0  0  0
 10 39  1  0  0  0  0
 11 12  1  0  0  0  0
 11 40  1  0  0  0  0
 12 13  2  0  0  0  0
 12 28  1  0  0  0  0
 13 14  1  0  0  0  0
 13 15  1  0  0  0  0
 14 41  1  0  0  0  0
 15 16  1  0  0  0  0
 15 42  1  0  0  0  0
 16 17  2  0  0  0  0
 16 18  2  0  0  0  0
 16 19  1  0  0  0  0
 19 23  2  0  0  0  0
 19 20  1  0  0  0  0
 20 21  2  0  0  0  0
 20 43  1  0  0  0  0
 21 22  1  0  0  0  0
 21 25  1  0  0  0  0
 22 23  1  0  0  0  0
 22 24  1  0  0  0  0
 23 44  1  0  0  0  0
 24 45  1  0  0  0  0
 24 46  1  0  0  0  0
 24 47  1  0  0  0  0
 25 26  2  0  0  0  0
 25 27  1  0  0  0  0
 28 48  1  0  0  0  0
 28 49  1  0  0  0  0
 28 50  1  0  0  0  0
M  END
$$$$
ZINC21946526
 OpenBabel01252620473D

 64 66  0  0  0  0  0  0  0  0999 V2000
    3.1918    1.6910    0.8152 C   0  0  0  0  0  0  0  0  0  0  0  0
    3.0164    0.2815    0.6578 O   0  0  0  0  0  0  0  0  0  0  0  0
    3.0022   -0.4668    1.7877 C   0  0  0  0  0  0  0  0  0  0  0  0
    2.8420   -1.8450    1.7170 C   0  0  0  0  0  0  0  0  0  0  0  0
    2.8341   -2.5728    2.9042 C   0  0  0  0  0  0  0  0  0  0  0  0
    2.9794   -1.9276    4.0593 N   0  0  0  0  0  0  0  0  0  0  0  0
    3.1295   -0.6140    4.0866 C   0  0  0  0  0  0  0  0  0  0  0  0
    3.1468    0.1079    2.9780 N   0  0  0  0  0  0  0  0  0  0  0  0
    3.2746    0.0084    5.2808 O   0  0  0  0  0  0  0  0  0  0  0  0
    3.4336    1.4283    5.2574 C   0  0  0  0  0  0  0  0  0  0  0  0
    2.6768   -3.9496    2.8833 N   0  0  0  0  0  2  0  0  0  0  0  0
    2.6691   -4.8038    4.3020 S   0  0  0  0  0  0  0  0  0  0  0  0
    3.9730   -4.6854    4.8543 O   0  0  0  0  0  0  0  0  0  0  0  0
    1.5030   -4.4055    5.0095 O   0  0  0  0  0  0  0  0  0  0  0  0
    2.4505   -6.5021    3.8864 C   0  0  0  0  0  0  0  0  0  0  0  0
    1.1761   -7.0308    3.7928 C   0  0  0  0  0  0  0  0  0  0  0  0
    1.0010   -8.3614    3.4674 C   0  0  0  0  0  0  0  0  0  0  0  0
    2.1073   -9.1690    3.2334 C   0  0  0  0  0  0  0  0  0  0  0  0
    3.3863   -8.6342    3.3279 C   0  0  0  0  0  0  0  0  0  0  0  0
    3.5537   -7.3017    3.6490 C   0  0  0  0  0  0  0  0  0  0  0  0
    1.9341  -10.5150    2.9045 N   0  0  0  0  0  0  0  0  0  0  0  0
    2.8709  -11.1603    2.1289 C   0  0  0  0  0  0  0  0  0  0  0  0
    3.5113  -12.2555    2.6094 C   0  0  0  0  0  0  0  0  0  0  0  0
    4.5925  -12.8672    1.8382 C   0  0  0  0  0  0  0  0  0  0  0  0
    4.9680  -12.3517    0.8026 O   0  0  0  0  0  0  0  0  0  0  0  0
    5.1737  -14.0036    2.2754 O   0  0  0  0  0  0  0  0  0  0  0  0
    6.2237  -14.5459    1.4721 C   0  0  0  0  0  0  0  0  0  0  0  0
    3.1801  -10.6579    0.7678 C   0  0  0  0  0  0  0  0  0  0  0  0
    4.0042   -9.7780    0.6178 O   0  0  0  0  0  0  0  0  0  0  0  0
    2.5468  -11.1776   -0.3023 N   0  0  0  0  0  0  0  0  0  0  0  0
    2.9291  -10.7605   -1.6537 C   0  0  0  0  0  0  0  0  0  0  0  0
    2.1841   -9.4755   -2.0208 C   0  0  0  0  0  0  0  0  0  0  0  0
    2.5834   -9.0400   -3.4321 C   0  0  0  0  0  0  0  0  0  0  0  0
    2.2196  -10.1428   -4.4282 C   0  0  0  0  0  0  0  0  0  0  0  0
    2.9646  -11.4277   -4.0611 C   0  0  0  0  0  0  0  0  0  0  0  0
    2.5653  -11.8633   -2.6498 C   0  0  0  0  0  0  0  0  0  0  0  0
    4.1445    1.8858    1.3076 H   0  0  0  0  0  0  0  0  0  0  0  0
    3.1842    2.1697   -0.1640 H   0  0  0  0  0  0  0  0  0  0  0  0
    2.3803    2.0925    1.4222 H   0  0  0  0  0  0  0  0  0  0  0  0
    2.7260   -2.3401    0.7642 H   0  0  0  0  0  0  0  0  0  0  0  0
    2.5587    1.8843    4.7939 H   0  0  0  0  0  0  0  0  0  0  0  0
    3.5394    1.7990    6.2770 H   0  0  0  0  0  0  0  0  0  0  0  0
    4.3240    1.6848    4.6834 H   0  0  0  0  0  0  0  0  0  0  0  0
    0.3167   -6.4025    3.9748 H   0  0  0  0  0  0  0  0  0  0  0  0
    0.0055   -8.7738    3.3951 H   0  0  0  0  0  0  0  0  0  0  0  0
    4.2483   -9.2591    3.1467 H   0  0  0  0  0  0  0  0  0  0  0  0
    4.5474   -6.8844    3.7190 H   0  0  0  0  0  0  0  0  0  0  0  0
    1.1537  -10.9954    3.2225 H   0  0  0  0  0  0  0  0  0  0  0  0
    3.2225  -12.6755    3.5615 H   0  0  0  0  0  0  0  0  0  0  0  0
    6.6028  -15.4565    1.9360 H   0  0  0  0  0  0  0  0  0  0  0  0
    5.8388  -14.7772    0.4789 H   0  0  0  0  0  0  0  0  0  0  0  0
    7.0305  -13.8177    1.3885 H   0  0  0  0  0  0  0  0  0  0  0  0
    1.8378  -11.8277   -0.1778 H   0  0  0  0  0  0  0  0  0  0  0  0
    4.0035  -10.5800   -1.6878 H   0  0  0  0  0  0  0  0  0  0  0  0
    1.1097   -9.6561   -1.9866 H   0  0  0  0  0  0  0  0  0  0  0  0
    2.4433   -8.6899   -1.3111 H   0  0  0  0  0  0  0  0  0  0  0  0
    2.0527   -8.1246   -3.6936 H   0  0  0  0  0  0  0  0  0  0  0  0
    3.6578   -8.8594   -3.4662 H   0  0  0  0  0  0  0  0  0  0  0  0
    1.1452  -10.3233   -4.3941 H   0  0  0  0  0  0  0  0  0  0  0  0
    2.5041   -9.8325   -5.4337 H   0  0  0  0  0  0  0  0  0  0  0  0
    2.7054  -12.2134   -4.7708 H   0  0  0  0  0  0  0  0  0  0  0  0
    4.0390  -11.2472   -4.0953 H   0  0  0  0  0  0  0  0  0  0  0  0
    3.0961  -12.7787   -2.3883 H   0  0  0  0  0  0  0  0  0  0  0  0
    1.4909  -12.0438   -2.6157 H   0  0  0  0  0  0  0  0  0  0  0  0
  1  2  1  0  0  0  0
  1 37  1  0  0  0  0
  1 38  1  0  0  0  0
  1 39  1  0  0  0  0
  2  3  1  0  0  0  0
  3  8  2  0  0  0  0
  3  4  1  0  0  0  0
  4  5  2  0  0  0  0
  4 40  1  0  0  0  0
  5  6  1  0  0  0  0
  5 11  1  0  0  0  0
  6  7  2  0  0  0  0
  7  8  1  0  0  0  0
  7  9  1  0  0  0  0
  9 10  1  0  0  0  0
 10 41  1  0  0  0  0
 10 42  1  0  0  0  0
 10 43  1  0  0  0  0
 11 12  1  0  0  0  0
 12 13  2  0  0  0  0
 12 14  2  0  0  0  0
 12 15  1  0  0  0  0
 15 20  2  0  0  0  0
 15 16  1  0  0  0  0
 16 17  2  0  0  0  0
 16 44  1  0  0  0  0
 17 18  1  0  0  0  0
 17 45  1  0  0  0  0
 18 19  2  0  0  0  0
 18 21  1  0  0  0  0
 19 20  1  0  0  0  0
 19 46  1  0  0  0  0
 20 47  1  0  0  0  0
 21 22  1  0  0  0  0
 21 48  1  0  0  0  0
 22 23  2  0  0  0  0
 22 28  1  0  0  0  0
 23 24  1  0  0  0  0
 23 49  1  0  0  0  0
 24 25  2  0  0  0  0
 24 26  1  0  0  0  0
 26 27  1  0  0  0  0
 27 50  1  0  0  0  0
 27 51  1  0  0  0  0
 27 52  1  0  0  0  0
 28 29  2  0  0  0  0
 28 30  1  0  0  0  0
 30 31  1  0  0  0  0
 30 53  1  0  0  0  0
 31 36  1  0  0  0  0
 31 32  1  0  0  0  0
 31 54  1  0  0  0  0
 32 33  1  0  0  0  0
 32 55  1  0  0  0  0
 32 56  1  0  0  0  0
 33 34  1  0  0  0  0
 33 57  1  0  0  0  0
 33 58  1  0  0  0  0
 34 35  1  0  0  0  0
 34 59  1  0  0  0  0
 34 60  1  0  0  0  0
 35 36  1  0  0  0  0
 35 61  1  0  0  0  0
 35 62  1  0  0  0  0
 36 63  1  0  0  0  0
 36 64  1  0  0  0  0
M  END
$$$$
ZINC10232810
 OpenBabel01252620473D

 40 42  0  0  1  0  0  0  0  0999 V2000
    4.6407    6.4633    0.9145 C   0  0  0  0  0  0  0  0  0  0  0  0
    4.1636    7.3920    0.0017 C   0  0  0  0  0  0  0  0  0  0  0  0
    3.1834    7.0391   -0.9130 C   0  0  0  0  0  0  0  0  0  0  0  0
    2.6732    5.7607   -0.9235 C   0  0  0  0  0  0  0  0  0  0  0  0
    3.1499    4.8115   -0.0026 C   0  0  0  0  0  0  0  0  0  0  0  0
    4.1406    5.1813    0.9241 C   0  0  0  0  0  0  0  0  0  0  0  0
    2.6143    3.4498   -0.0044 C   0  0  0  0  0  0  0  0  0  0  0  0
    3.3883    2.2713   -0.0181 C   0  0  0  0  0  0  0  0  0  0  0  0
    2.5294    1.2155   -0.0156 C   0  0  0  0  0  0  0  0  0  0  0  0
    1.1779    1.7849    0.0004 C   0  0  0  0  0  0  0  0  0  0  0  0
    1.3097    3.1302    0.0005 O   0  0  0  0  0  0  0  0  0  0  0  0
   -0.0126    1.0758    0.0080 C   0  0  0  0  0  0  0  0  0  0  0  0
   -1.2387    1.7617    0.0175 C   0  0  0  0  0  0  0  0  0  0  0  0
   -2.6275    1.2136    0.0211 C   0  0  0  0  0  0  0  0  0  0  0  0
   -2.8469    0.0194    0.0154 O   0  0  0  0  0  0  0  0  0  0  0  0
   -3.6058    2.1054    0.0313 N   0  0  0  0  0  0  0  0  0  0  0  0
   -3.3236    3.4232    0.0379 C   0  0  0  0  0  0  0  0  0  0  0  0
   -4.4178    4.7398    0.0504 S   0  0  0  0  0  0  0  0  0  0  0  0
   -1.5408    3.4713    0.0359 S   0  0  0  0  0  0  0  0  0  0  0  0
   -5.0008    1.6580    0.0361 C   0  0  2  0  0  0  0  0  0  0  0  0
   -5.0330    0.5685    0.0300 H   0  0  0  0  0  0  0  0  0  0  0  0
   -5.7132    2.1962   -1.2064 C   0  0  0  0  0  0  0  0  0  0  0  0
   -5.1023    1.5839   -2.4405 C   0  0  0  0  0  0  0  0  0  0  0  0
   -4.1907    0.7977   -2.3369 O   0  0  0  0  0  0  0  0  0  0  0  0
   -5.6896    2.1740    1.2731 C   0  0  0  0  0  0  0  0  0  0  0  0
   -5.0780    2.8465    2.0691 O   0  0  0  0  0  0  0  0  0  0  0  0
    1.6260    5.3868   -1.9006 N   0  0  0  0  0  4  0  0  0  0  0  0
    1.1811    6.2779   -2.7623 O   0  0  0  0  0  0  0  0  0  0  0  0
    1.1392    4.1631   -1.9082 O   0  5  0  0  0  0  0  0  0  0  0  0
    5.4044    6.7483    1.6229 H   0  0  0  0  0  0  0  0  0  0  0  0
    4.5581    8.3974    0.0038 H   0  0  0  0  0  0  0  0  0  0  0  0
    2.8186    7.7698   -1.6196 H   0  0  0  0  0  0  0  0  0  0  0  0
    4.5105    4.4606    1.6384 H   0  0  0  0  0  0  0  0  0  0  0  0
    4.4668    2.2164   -0.0281 H   0  0  0  0  0  0  0  0  0  0  0  0
    2.7908    0.1677   -0.0240 H   0  0  0  0  0  0  0  0  0  0  0  0
    0.0021   -0.0041    0.0020 H   0  0  0  0  0  0  0  0  0  0  0  0
   -6.7713    1.9387   -1.1587 H   0  0  0  0  0  0  0  0  0  0  0  0
   -5.6045    3.2800   -1.2467 H   0  0  0  0  0  0  0  0  0  0  0  0
   -5.5710    1.9119   -3.6548 O   0  0  0  0  0  1  0  0  0  0  0  0
   -6.9826    1.8866    1.4907 O   0  0  0  0  0  1  0  0  0  0  0  0
  1  6  2  0  0  0  0
  1  2  1  0  0  0  0
  1 30  1  0  0  0  0
  2  3  2  0  0  0  0
  2 31  1  0  0  0  0
  3  4  1  0  0  0  0
  3 32  1  0  0  0  0
  4  5  2  0  0  0  0
  4 27  1  0  0  0  0
  5  6  1  0  0  0  0
  5  7  1  0  0  0  0
  6 33  1  0  0  0  0
  7 11  1  0  0  0  0
  7  8  2  0  0  0  0
  8  9  1  0  0  0  0
  8 34  1  0  0  0  0
  9 10  2  0  0  0  0
  9 35  1  0  0  0  0
 10 11  1  0  0  0  0
 10 12  1  0  0  0  0
 12 13  2  0  0  0  0
 12 36  1  0  0  0  0
 13 19  1  0  0  0  0
 13 14  1  0  0  0  0
 14 15  2  0  0  0  0
 14 16  1  0  0  0  0
 16 17  1  0  0  0  0
 16 20  1  0  0  0  0
 17 18  2  0  0  0  0
 17 19  1  0  0  0  0
 20 21  1  6  0  0  0
 20 22  1  0  0  0  0
 20 25  1  0  0  0  0
 22 23  1  0  0  0  0
 22 37  1  0  0  0  0
 22 38  1  0  0  0  0
 23 24  2  0  0  0  0
 23 39  1  0  0  0  0
 25 26  2  0  0  0  0
 25 40  1  0  0  0  0
 27 28  2  0  0  0  0
 27 29  1  0  0  0  0
M  CHG  1  29  -1
M  END
$$$$
ZINC40096462
 OpenBabel01252620473D

 52 55  0  0  1  0  0  0  0  0999 V2000
   -0.6404    0.1657    2.1863 C   0  0  0  0  0  0  0  0  0  0  0  0
    0.2613    0.2941    3.2192 C   0  0  0  0  0  0  0  0  0  0  0  0
    1.4742   -0.3843    3.1790 C   0  0  0  0  0  0  0  0  0  0  0  0
    1.7821   -1.2000    2.0917 C   0  0  0  0  0  0  0  0  0  0  0  0
    0.8823   -1.3318    1.0511 C   0  0  0  0  0  0  0  0  0  0  0  0
   -0.3367   -0.6487    1.0917 C   0  0  0  0  0  0  0  0  0  0  0  0
   -1.3006   -0.7878   -0.0175 C   0  0  0  0  0  0  0  0  0  0  0  0
   -1.0058   -1.4405   -1.0015 O   0  0  0  0  0  0  0  0  0  0  0  0
   -2.6133   -0.1397    0.0662 C   0  0  0  0  0  0  0  0  0  0  0  0
   -3.8137   -0.7573    0.1605 C   0  0  0  0  0  0  0  0  0  0  0  0
   -4.8812    0.2630    0.2214 C   0  0  0  0  0  0  0  0  0  0  0  0
   -6.0693    0.0246    0.3093 O   0  0  0  0  0  0  0  0  0  0  0  0
   -4.3429    1.4947    0.1651 N   0  0  0  0  0  0  0  0  0  0  0  0
   -2.8859    1.3463    0.0705 C   0  0  2  0  0  0  0  0  0  0  0  0
   -2.4027    1.8136    0.9285 H   0  0  0  0  0  0  0  0  0  0  0  0
   -2.3869    1.9683   -1.2083 C   0  0  0  0  0  0  0  0  0  0  0  0
   -3.1560    1.9341   -2.3614 C   0  0  0  0  0  0  0  0  0  0  0  0
   -2.6655    2.5150   -3.5156 C   0  0  0  0  0  0  0  0  0  0  0  0
   -1.4817    3.0959   -3.5278 N   0  0  0  0  0  0  0  0  0  0  0  0
   -0.7233    3.1472   -2.4503 C   0  0  0  0  0  0  0  0  0  0  0  0
   -1.1503    2.5933   -1.2582 C   0  0  0  0  0  0  0  0  0  0  0  0
   -5.0803    2.7602    0.1989 C   0  0  0  0  0  0  0  0  0  0  0  0
   -5.2342    3.2221    1.6494 C   0  0  0  0  0  0  0  0  0  0  0  0
   -3.9469    3.5200    2.1937 O   0  0  0  0  0  0  0  0  0  0  0  0
   -3.9785    3.9630    3.5519 C   0  0  0  0  0  0  0  0  0  0  0  0
   -2.5531    4.2511    4.0276 C   0  0  0  0  0  0  0  0  0  0  0  0
   -2.0155    5.3471    3.2849 O   0  0  0  0  0  0  0  0  0  0  0  0
   -4.0061   -2.0962    0.1934 O   0  5  0  0  0  0  0  0  0  0  0  0
    2.9623   -1.8767    2.0414 O   0  0  0  0  0  0  0  0  0  0  0  0
    3.9976   -1.4307    2.9240 C   0  0  0  0  0  0  0  0  0  0  0  0
    3.3857   -1.2224    4.3158 C   0  0  0  0  0  0  0  0  0  0  0  0
    2.3505   -0.2395    4.2083 O   0  0  0  0  0  0  0  0  0  0  0  0
   -1.5835    0.6905    2.2241 H   0  0  0  0  0  0  0  0  0  0  0  0
    0.0255    0.9245    4.0638 H   0  0  0  0  0  0  0  0  0  0  0  0
    1.1208   -1.9619    0.2070 H   0  0  0  0  0  0  0  0  0  0  0  0
   -4.1260    1.4593   -2.3579 H   0  0  0  0  0  0  0  0  0  0  0  0
   -3.2585    2.4927   -4.4180 H   0  0  0  0  0  0  0  0  0  0  0  0
    0.2409    3.6313   -2.4988 H   0  0  0  0  0  0  0  0  0  0  0  0
   -0.5267    2.6429   -0.3778 H   0  0  0  0  0  0  0  0  0  0  0  0
   -4.5333    3.5146   -0.3665 H   0  0  0  0  0  0  0  0  0  0  0  0
   -6.0661    2.6182   -0.2438 H   0  0  0  0  0  0  0  0  0  0  0  0
   -5.8580    4.1154    1.6820 H   0  0  0  0  0  0  0  0  0  0  0  0
   -5.7021    2.4307    2.2350 H   0  0  0  0  0  0  0  0  0  0  0  0
   -4.5762    4.8716    3.6239 H   0  0  0  0  0  0  0  0  0  0  0  0
   -4.4203    3.1869    4.1770 H   0  0  0  0  0  0  0  0  0  0  0  0
   -2.5680    4.5032    5.0879 H   0  0  0  0  0  0  0  0  0  0  0  0
   -1.9330    3.3682    3.8727 H   0  0  0  0  0  0  0  0  0  0  0  0
   -1.1122    5.5857    3.5341 H   0  0  0  0  0  0  0  0  0  0  0  0
    4.7846   -2.1831    2.9773 H   0  0  0  0  0  0  0  0  0  0  0  0
    4.4114   -0.4904    2.5598 H   0  0  0  0  0  0  0  0  0  0  0  0
    2.9651   -2.1610    4.6767 H   0  0  0  0  0  0  0  0  0  0  0  0
    4.1535   -0.8735    5.0064 H   0  0  0  0  0  0  0  0  0  0  0  0
  1  6  2  0  0  0  0
  1  2  1  0  0  0  0
  1 33  1  0  0  0  0
  2  3  2  0  0  0  0
  2 34  1  0  0  0  0
  3 32  1  0  0  0  0
  3  4  1  0  0  0  0
  4  5  2  0  0  0  0
  4 29  1  0  0  0  0
  5  6  1  0  0  0  0
  5 35  1  0  0  0  0
  6  7  1  0  0  0  0
  7  8  2  0  0  0  0
  7  9  1  0  0  0  0
  9 14  1  0  0  0  0
  9 10  2  0  0  0  0
 10 11  1  0  0  0  0
 10 28  1  0  0  0  0
 11 12  2  0  0  0  0
 11 13  1  0  0  0  0
 13 14  1  0  0  0  0
 13 22  1  0  0  0  0
 14 15  1  1  0  0  0
 14 16  1  0  0  0  0
 16 21  2  0  0  0  0
 16 17  1  0  0  0  0
 17 18  2  0  0  0  0
 17 36  1  0  0  0  0
 18 19  1  0  0  0  0
 18 37  1  0  0  0  0
 19 20  2  0  0  0  0
 20 21  1  0  0  0  0
 20 38  1  0  0  0  0
 21 39  1  0  0  0  0
 22 23  1  0  0  0  0
 22 40  1  0  0  0  0
 22 41  1  0  0  0  0
 23 24  1  0  0  0  0
 23 42  1  0  0  0  0
 23 43  1  0  0  0  0
 24 25  1  0  0  0  0
 25 26  1  0  0  0  0
 25 44  1  0  0  0  0
 25 45  1  0  0  0  0
 26 27  1  0  0  0  0
 26 46  1  0  0  0  0
 26 47  1  0  0  0  0
 27 48  1  0  0  0  0
 29 30  1  0  0  0  0
 30 31  1  0  0  0  0
 30 49  1  0  0  0  0
 30 50  1  0  0  0  0
 31 32  1  0  0  0  0
 31 51  1  0  0  0  0
 31 52  1  0  0  0  0
M  CHG  1  28  -1
M  END
$$$$
ZINC40102869
 OpenBabel01252620473D

 62 65  0  0  1  0  0  0  0  0999 V2000
    0.2144    1.5411    0.1768 C   0  0  0  0  0  0  0  0  0  0  0  0
    0.1899    0.0118    0.1384 C   0  0  0  0  0  0  0  0  0  0  0  0
    0.8942   -0.5044    1.2696 O   0  0  0  0  0  0  0  0  0  0  0  0
    0.8791   -1.8531    1.4436 C   0  0  0  0  0  0  0  0  0  0  0  0
    0.2958   -2.6699    0.4882 C   0  0  0  0  0  0  0  0  0  0  0  0
    0.2817   -4.0407    0.6664 C   0  0  0  0  0  0  0  0  0  0  0  0
    0.8483   -4.5999    1.7967 C   0  0  0  0  0  0  0  0  0  0  0  0
    1.4314   -3.7906    2.7539 C   0  0  0  0  0  0  0  0  0  0  0  0
    1.4544   -2.4163    2.5786 C   0  0  0  0  0  0  0  0  0  0  0  0
    2.0330   -1.6192    3.5163 O   0  0  0  0  0  0  0  0  0  0  0  0
   -0.3531   -4.9275   -0.3737 C   0  0  1  0  0  0  0  0  0  0  0  0
   -0.9580   -4.3304   -1.0561 H   0  0  0  0  0  0  0  0  0  0  0  0
    0.7134   -5.6730   -1.1416 C   0  0  0  0  0  0  0  0  0  0  0  0
    0.4924   -6.9926   -0.9361 C   0  0  0  0  0  0  0  0  0  0  0  0
   -0.6849   -7.1565   -0.0572 C   0  0  0  0  0  0  0  0  0  0  0  0
   -1.1364   -8.2222    0.3122 O   0  0  0  0  0  0  0  0  0  0  0  0
   -1.1834   -5.9499    0.2737 N   0  0  0  0  0  0  0  0  0  0  0  0
   -2.3470   -5.7012    1.1283 C   0  0  0  0  0  0  0  0  0  0  0  0
   -3.6107   -5.6510    0.2673 C   0  0  0  0  0  0  0  0  0  0  0  0
   -3.8393   -6.9342   -0.3185 O   0  0  0  0  0  0  0  0  0  0  0  0
    1.2314   -8.0010   -1.4527 O   0  5  0  0  0  0  0  0  0  0  0  0
    1.7811   -5.0814   -1.9532 C   0  0  0  0  0  0  0  0  0  0  0  0
    2.9417   -5.1918   -1.6054 O   0  0  0  0  0  0  0  0  0  0  0  0
    1.4475   -4.3504   -3.1945 C   0  0  0  0  0  0  0  0  0  0  0  0
    0.1123   -4.1445   -3.5496 C   0  0  0  0  0  0  0  0  0  0  0  0
   -0.1950   -3.4617   -4.7080 C   0  0  0  0  0  0  0  0  0  0  0  0
    0.8153   -2.9795   -5.5205 C   0  0  0  0  0  0  0  0  0  0  0  0
    2.1454   -3.1797   -5.1762 C   0  0  0  0  0  0  0  0  0  0  0  0
    2.4655   -3.8586   -4.0128 C   0  0  0  0  0  0  0  0  0  0  0  0
    3.1337   -2.7040   -5.9788 O   0  0  0  0  0  0  0  0  0  0  0  0
    2.7314   -2.0079   -7.1602 C   0  0  0  0  0  0  0  0  0  0  0  0
    3.9533   -1.5577   -7.9187 C   0  0  0  0  0  0  0  0  0  0  0  0
    5.2145   -1.8482   -7.4328 C   0  0  0  0  0  0  0  0  0  0  0  0
    6.3353   -1.4353   -8.1284 C   0  0  0  0  0  0  0  0  0  0  0  0
    6.1959   -0.7316   -9.3103 C   0  0  0  0  0  0  0  0  0  0  0  0
    4.9356   -0.4407   -9.7970 C   0  0  0  0  0  0  0  0  0  0  0  0
    3.8131   -0.8586   -9.1041 C   0  0  0  0  0  0  0  0  0  0  0  0
    2.2297   -0.4992   -9.7182 Cl  0  0  0  0  0  0  0  0  0  0  0  0
    1.2472    1.8887    0.1514 H   0  0  0  0  0  0  0  0  0  0  0  0
   -0.3228    1.9348   -0.6861 H   0  0  0  0  0  0  0  0  0  0  0  0
   -0.2638    1.8893    1.0923 H   0  0  0  0  0  0  0  0  0  0  0  0
   -0.8429   -0.3358    0.1638 H   0  0  0  0  0  0  0  0  0  0  0  0
    0.6680   -0.3364   -0.7771 H   0  0  0  0  0  0  0  0  0  0  0  0
   -0.1481   -2.2356   -0.3953 H   0  0  0  0  0  0  0  0  0  0  0  0
    0.8350   -5.6712    1.9324 H   0  0  0  0  0  0  0  0  0  0  0  0
    1.8729   -4.2299    3.6362 H   0  0  0  0  0  0  0  0  0  0  0  0
    1.4274   -1.3255    4.2107 H   0  0  0  0  0  0  0  0  0  0  0  0
   -2.4380   -6.5034    1.8607 H   0  0  0  0  0  0  0  0  0  0  0  0
   -2.2215   -4.7498    1.6452 H   0  0  0  0  0  0  0  0  0  0  0  0
   -4.4634   -5.3784    0.8890 H   0  0  0  0  0  0  0  0  0  0  0  0
   -3.4839   -4.9091   -0.5211 H   0  0  0  0  0  0  0  0  0  0  0  0
   -4.6261   -6.9762   -0.8791 H   0  0  0  0  0  0  0  0  0  0  0  0
   -0.6789   -4.5199   -2.9176 H   0  0  0  0  0  0  0  0  0  0  0  0
   -1.2277   -3.3034   -4.9817 H   0  0  0  0  0  0  0  0  0  0  0  0
    0.5685   -2.4457   -6.4264 H   0  0  0  0  0  0  0  0  0  0  0  0
    3.4998   -4.0107   -3.7414 H   0  0  0  0  0  0  0  0  0  0  0  0
    2.1378   -2.6718   -7.7887 H   0  0  0  0  0  0  0  0  0  0  0  0
    2.1343   -1.1387   -6.8843 H   0  0  0  0  0  0  0  0  0  0  0  0
    5.3240   -2.3975   -6.5095 H   0  0  0  0  0  0  0  0  0  0  0  0
    7.3204   -1.6622   -7.7483 H   0  0  0  0  0  0  0  0  0  0  0  0
    7.0720   -0.4090   -9.8532 H   0  0  0  0  0  0  0  0  0  0  0  0
    4.8268    0.1093  -10.7201 H   0  0  0  0  0  0  0  0  0  0  0  0
  1  2  1  0  0  0  0
  1 39  1  0  0  0  0
  1 40  1  0  0  0  0
  1 41  1  0  0  0  0
  2  3  1  0  0  0  0
  2 42  1  0  0  0  0
  2 43  1  0  0  0  0
  3  4  1  0  0  0  0
  4  9  2  0  0  0  0
  4  5  1  0  0  0  0
  5  6  2  0  0  0  0
  5 44  1  0  0  0  0
  6  7  1  0  0  0  0
  6 11  1  0  0  0  0
  7  8  2  0  0  0  0
  7 45  1  0  0  0  0
  8  9  1  0  0  0  0
  8 46  1  0  0  0  0
  9 10  1  0  0  0  0
 10 47  1  0  0  0  0
 11 12  1  6  0  0  0
 11 17  1  0  0  0  0
 11 13  1  0  0  0  0
 13 14  2  0  0  0  0
 13 22  1  0  0  0  0
 14 15  1  0  0  0  0
 14 21  1  0  0  0  0
 15 16  2  0  0  0  0
 15 17  1  0  0  0  0
 17 18  1  0  0  0  0
 18 19  1  0  0  0  0
 18 48  1  0  0  0  0
 18 49  1  0  0  0  0
 19 20  1  0  0  0  0
 19 50  1  0  0  0  0
 19 51  1  0  0  0  0
 20 52  1  0  0  0  0
 22 23  2  0  0  0  0
 22 24  1  0  0  0  0
 24 29  2  0  0  0  0
 24 25  1  0  0  0  0
 25 26  2  0  0  0  0
 25 53  1  0  0  0  0
 26 27  1  0  0  0  0
 26 54  1  0  0  0  0
 27 28  2  0  0  0  0
 27 55  1  0  0  0  0
 28 29  1  0  0  0  0
 28 30  1  0  0  0  0
 29 56  1  0  0  0  0
 30 31  1  0  0  0  0
 31 32  1  0  0  0  0
 31 57  1  0  0  0  0
 31 58  1  0  0  0  0
 32 37  2  0  0  0  0
 32 33  1  0  0  0  0
 33 34  2  0  0  0  0
 33 59  1  0  0  0  0
 34 35  1  0  0  0  0
 34 60  1  0  0  0  0
 35 36  2  0  0  0  0
 35 61  1  0  0  0  0
 36 37  1  0  0  0  0
 36 62  1  0  0  0  0
 37 38  1  0  0  0  0
M  CHG  1  21  -1
M  END
$$$$
ZINC57544337
 OpenBabel01252620473D

 32 32  0  0  0  0  0  0  0  0999 V2000
   -0.9832    1.2196    0.7467 C   0  0  0  0  0  0  0  0  0  0  0  0
   -0.4576   -0.1383    0.3580 C   0  0  0  0  0  0  0  0  0  0  0  0
   -0.0524   -0.3725   -0.9445 C   0  0  0  0  0  0  0  0  0  0  0  0
    0.4292   -1.6123   -1.3082 C   0  0  0  0  0  0  0  0  0  0  0  0
    0.5082   -2.6343   -0.3567 C   0  0  0  0  0  0  0  0  0  0  0  0
    0.0973   -2.3895    0.9575 C   0  0  0  0  0  0  0  0  0  0  0  0
   -0.3772   -1.1428    1.3067 C   0  0  0  0  0  0  0  0  0  0  0  0
    0.1777   -3.4838    1.9904 C   0  0  0  0  0  0  0  0  0  0  0  0
    1.0205   -3.9605   -0.7366 C   0  0  0  0  0  0  0  0  0  0  0  0
    0.2487   -4.8422   -1.0484 O   0  0  0  0  0  0  0  0  0  0  0  0
    2.5045   -4.2229   -0.7381 C   0  0  0  0  0  0  0  0  0  0  0  0
    2.7609   -5.7003   -1.0420 C   0  0  0  0  0  0  0  0  0  0  0  0
    4.5472   -6.0161   -1.0438 S   0  0  0  0  0  0  0  0  0  0  0  0
    4.7701   -7.4240   -1.3342 O   0  0  0  0  0  0  0  0  0  0  0  0
    5.1650   -5.1862   -2.0664 O   0  0  0  0  0  0  0  0  0  0  0  0
    5.0799   -5.6811    0.2677 O   0  0  0  0  0  1  0  0  0  0  0  0
    0.8688   -1.8656   -2.7272 C   0  0  0  0  0  0  0  0  0  0  0  0
   -0.1565    1.8479    1.0784 H   0  0  0  0  0  0  0  0  0  0  0  0
   -1.4682    1.6813   -0.1133 H   0  0  0  0  0  0  0  0  0  0  0  0
   -1.7050    1.1116    1.5563 H   0  0  0  0  0  0  0  0  0  0  0  0
   -0.1140    0.4177   -1.6781 H   0  0  0  0  0  0  0  0  0  0  0  0
   -0.6908   -0.9509    2.3222 H   0  0  0  0  0  0  0  0  0  0  0  0
    1.1816   -3.5104    2.4142 H   0  0  0  0  0  0  0  0  0  0  0  0
   -0.5459   -3.2899    2.7822 H   0  0  0  0  0  0  0  0  0  0  0  0
   -0.0445   -4.4426    1.5220 H   0  0  0  0  0  0  0  0  0  0  0  0
    2.9816   -3.6070   -1.5005 H   0  0  0  0  0  0  0  0  0  0  0  0
    2.9181   -3.9760    0.2397 H   0  0  0  0  0  0  0  0  0  0  0  0
    2.2838   -6.3162   -0.2796 H   0  0  0  0  0  0  0  0  0  0  0  0
    2.3473   -5.9472   -2.0198 H   0  0  0  0  0  0  0  0  0  0  0  0
    1.9459   -1.7178   -2.8057 H   0  0  0  0  0  0  0  0  0  0  0  0
    0.6213   -2.8895   -3.0070 H   0  0  0  0  0  0  0  0  0  0  0  0
    0.3574   -1.1726   -3.3952 H   0  0  0  0  0  0  0  0  0  0  0  0
  1  2  1  0  0  0  0
  1 18  1  0  0  0  0
  1 19  1  0  0  0  0
  1 20  1  0  0  0  0
  2  7  2  0  0  0  0
  2  3  1  0  0  0  0
  3  4  2  0  0  0  0
  3 21  1  0  0  0  0
  4  5  1  0  0  0  0
  4 17  1  0  0  0  0
  5  6  2  0  0  0  0
  5  9  1  0  0  0  0
  6  7  1  0  0  0  0
  6  8  1  0  0  0  0
  7 22  1  0  0  0  0
  8 23  1  0  0  0  0
  8 24  1  0  0  0  0
  8 25  1  0  0  0  0
  9 10  2  0  0  0  0
  9 11  1  0  0  0  0
 11 12  1  0  0  0  0
 11 26  1  0  0  0  0
 11 27  1  0  0  0  0
 12 13  1  0  0  0  0
 12 28  1  0  0  0  0
 12 29  1  0  0  0  0
 13 14  2  0  0  0  0
 13 15  2  0  0  0  0
 13 16  1  0  0  0  0
 17 30  1  0  0  0  0
 17 31  1  0  0  0  0
 17 32  1  0  0  0  0
M  END
$$$$
ZINC46367943
 OpenBabel01252620473D

 55 57  0  0  0  0  0  0  0  0999 V2000
   -0.1649    1.8859    0.8643 C   0  0  0  0  0  0  0  0  0  0  0  0
   -0.1565    0.4718    0.6586 O   0  0  0  0  0  0  0  0  0  0  0  0
    0.4299    0.0681   -0.5805 C   0  0  0  0  0  0  0  0  0  0  0  0
    0.3848   -1.4571   -0.6931 C   0  0  0  0  0  0  0  0  0  0  0  0
   -0.9755   -1.8898   -0.7599 O   0  0  0  0  0  0  0  0  0  0  0  0
   -1.1931   -3.2273   -0.8633 C   0  0  0  0  0  0  0  0  0  0  0  0
   -0.1195   -4.1057   -0.8939 C   0  0  0  0  0  0  0  0  0  0  0  0
   -0.3434   -5.4646   -0.9985 C   0  0  0  0  0  0  0  0  0  0  0  0
   -1.6361   -5.9499   -1.0727 C   0  0  0  0  0  0  0  0  0  0  0  0
   -2.7075   -5.0768   -1.0429 C   0  0  0  0  0  0  0  0  0  0  0  0
   -2.4891   -3.7169   -0.9326 C   0  0  0  0  0  0  0  0  0  0  0  0
   -4.1150   -5.6090   -1.1246 C   0  0  0  0  0  0  0  0  0  0  0  0
   -4.6135   -5.8805    0.2260 N   0  0  0  0  0  0  0  0  0  0  0  0
   -5.8587   -6.3661    0.3997 C   0  0  0  0  0  0  0  0  0  0  0  0
   -6.5665   -6.5784   -0.5620 O   0  0  0  0  0  0  0  0  0  0  0  0
   -6.3715   -6.6454    1.7890 C   0  0  0  0  0  0  0  0  0  0  0  0
   -7.7062   -7.1501    1.7116 O   0  0  0  0  0  0  0  0  0  0  0  0
   -8.3196   -7.4548    2.8854 C   0  0  0  0  0  0  0  0  0  0  0  0
   -7.6517   -7.2661    4.0875 C   0  0  0  0  0  0  0  0  0  0  0  0
   -8.2743   -7.5750    5.2816 C   0  0  0  0  0  0  0  0  0  0  0  0
   -9.5630   -8.0731    5.2832 C   0  0  0  0  0  0  0  0  0  0  0  0
  -10.2361   -8.2640    4.0835 C   0  0  0  0  0  0  0  0  0  0  0  0
   -9.6144   -7.9488    2.8832 C   0  0  0  0  0  0  0  0  0  0  0  0
  -11.5413   -8.7683    4.0850 N   0  0  0  0  0  0  0  0  0  0  0  0
  -12.3807   -8.4624    5.0941 C   0  0  0  0  0  0  0  0  0  0  0  0
  -12.0381   -7.6745    5.9502 O   0  0  0  0  0  0  0  0  0  0  0  0
  -13.7450   -9.0992    5.1586 C   0  0  0  0  0  0  0  0  0  0  0  0
  -14.9577   -8.1972    4.9203 C   0  0  0  0  0  0  0  0  0  0  0  0
  -14.6513   -8.7109    6.3286 C   0  0  0  0  0  0  0  0  0  0  0  0
    0.8588    2.2603    0.8558 H   0  0  0  0  0  0  0  0  0  0  0  0
   -0.7337    2.3655    0.0678 H   0  0  0  0  0  0  0  0  0  0  0  0
   -0.6259    2.1104    1.8261 H   0  0  0  0  0  0  0  0  0  0  0  0
   -0.1267    0.5100   -1.4069 H   0  0  0  0  0  0  0  0  0  0  0  0
    1.4659    0.4048   -0.6189 H   0  0  0  0  0  0  0  0  0  0  0  0
    0.9105   -1.7705   -1.5950 H   0  0  0  0  0  0  0  0  0  0  0  0
    0.8646   -1.9002    0.1796 H   0  0  0  0  0  0  0  0  0  0  0  0
    0.8903   -3.7272   -0.8362 H   0  0  0  0  0  0  0  0  0  0  0  0
    0.4920   -6.1488   -1.0227 H   0  0  0  0  0  0  0  0  0  0  0  0
   -1.8091   -7.0129   -1.1545 H   0  0  0  0  0  0  0  0  0  0  0  0
   -3.3265   -3.0355   -0.9049 H   0  0  0  0  0  0  0  0  0  0  0  0
   -4.7554   -4.8703   -1.6066 H   0  0  0  0  0  0  0  0  0  0  0  0
   -4.1218   -6.5307   -1.7065 H   0  0  0  0  0  0  0  0  0  0  0  0
   -4.0474   -5.7107    0.9952 H   0  0  0  0  0  0  0  0  0  0  0  0
   -5.7311   -7.3841    2.2710 H   0  0  0  0  0  0  0  0  0  0  0  0
   -6.3647   -5.7238    2.3709 H   0  0  0  0  0  0  0  0  0  0  0  0
   -6.6440   -6.8776    4.0893 H   0  0  0  0  0  0  0  0  0  0  0  0
   -7.7524   -7.4272    6.2155 H   0  0  0  0  0  0  0  0  0  0  0  0
  -10.0472   -8.3144    6.2180 H   0  0  0  0  0  0  0  0  0  0  0  0
  -10.1372   -8.0922    1.9491 H   0  0  0  0  0  0  0  0  0  0  0  0
  -11.8419   -9.3382    3.3599 H   0  0  0  0  0  0  0  0  0  0  0  0
  -13.8022  -10.1258    4.7969 H   0  0  0  0  0  0  0  0  0  0  0  0
  -14.7687   -7.1432    4.7169 H   0  0  0  0  0  0  0  0  0  0  0  0
  -15.8129   -8.6303    4.4016 H   0  0  0  0  0  0  0  0  0  0  0  0
  -15.3050   -9.4819    6.7363 H   0  0  0  0  0  0  0  0  0  0  0  0
  -14.2607   -7.9948    7.0516 H   0  0  0  0  0  0  0  0  0  0  0  0
  1  2  1  0  0  0  0
  1 30  1  0  0  0  0
  1 31  1  0  0  0  0
  1 32  1  0  0  0  0
  2  3  1  0  0  0  0
  3  4  1  0  0  0  0
  3 33  1  0  0  0  0
  3 34  1  0  0  0  0
  4  5  1  0  0  0  0
  4 35  1  0  0  0  0
  4 36  1  0  0  0  0
  5  6  1  0  0  0  0
  6 11  2  0  0  0  0
  6  7  1  0  0  0  0
  7  8  2  0  0  0  0
  7 37  1  0  0  0  0
  8  9  1  0  0  0  0
  8 38  1  0  0  0  0
  9 10  2  0  0  0  0
  9 39  1  0  0  0  0
 10 11  1  0  0  0  0
 10 12  1  0  0  0  0
 11 40  1  0  0  0  0
 12 13  1  0  0  0  0
 12 41  1  0  0  0  0
 12 42  1  0  0  0  0
 13 14  1  0  0  0  0
 13 43  1  0  0  0  0
 14 15  2  0  0  0  0
 14 16  1  0  0  0  0
 16 17  1  0  0  0  0
 16 44  1  0  0  0  0
 16 45  1  0  0  0  0
 17 18  1  0  0  0  0
 18 23  2  0  0  0  0
 18 19  1  0  0  0  0
 19 20  2  0  0  0  0
 19 46  1  0  0  0  0
 20 21  1  0  0  0  0
 20 47  1  0  0  0  0
 21 22  2  0  0  0  0
 21 48  1  0  0  0  0
 22 23  1  0  0  0  0
 22 24  1  0  0  0  0
 23 49  1  0  0  0  0
 24 25  1  0  0  0  0
 24 50  1  0  0  0  0
 25 26  2  0  0  0  0
 25 27  1  0  0  0  0
 27 29  1  0  0  0  0
 27 28  1  0  0  0  0
 27 51  1  0  0  0  0
 28 29  1  0  0  0  0
 28 52  1  0  0  0  0
 28 53  1  0  0  0  0
 29 54  1  0  0  0  0
 29 55  1  0  0  0  0
M  END
$$$$
ZINC40003449
 OpenBabel01252620473D

 71 74  0  0  1  0  0  0  0  0999 V2000
   -1.6119    0.8396    0.8795 C   0  0  0  0  0  0  0  0  0  0  0  0
   -1.6515   -0.6787    0.6946 C   0  0  0  0  0  0  0  0  0  0  0  0
   -0.6302   -1.0736   -0.2236 O   0  0  0  0  0  0  0  0  0  0  0  0
   -0.5284   -2.4012   -0.5003 C   0  0  0  0  0  0  0  0  0  0  0  0
   -1.3962   -3.3029    0.0944 C   0  0  0  0  0  0  0  0  0  0  0  0
   -1.2917   -4.6521   -0.1883 C   0  0  0  0  0  0  0  0  0  0  0  0
   -0.3221   -5.1050   -1.0637 C   0  0  0  0  0  0  0  0  0  0  0  0
    0.5471   -4.2107   -1.6601 C   0  0  0  0  0  0  0  0  0  0  0  0
    0.4437   -2.8564   -1.3858 C   0  0  0  0  0  0  0  0  0  0  0  0
    1.2942   -1.9746   -1.9763 O   0  0  0  0  0  0  0  0  0  0  0  0
    2.2065   -2.5008   -2.9422 C   0  0  0  0  0  0  0  0  0  0  0  0
   -0.2123   -6.5768   -1.3679 C   0  0  2  0  0  0  0  0  0  0  0  0
    0.6872   -6.7726   -1.9516 H   0  0  0  0  0  0  0  0  0  0  0  0
   -1.4343   -7.0439   -2.1240 C   0  0  0  0  0  0  0  0  0  0  0  0
   -2.0271   -7.9899   -1.3610 C   0  0  0  0  0  0  0  0  0  0  0  0
   -1.2478   -8.1740   -0.1219 C   0  0  0  0  0  0  0  0  0  0  0  0
   -1.5251   -8.9558    0.7663 O   0  0  0  0  0  0  0  0  0  0  0  0
   -0.1829   -7.3495   -0.1204 N   0  0  0  0  0  0  0  0  0  0  0  0
    0.8254   -7.2423    0.9371 C   0  0  0  0  0  0  0  0  0  0  0  0
    0.3872   -6.1868    1.9544 C   0  0  0  0  0  0  0  0  0  0  0  0
    1.4402   -6.0748    3.0587 C   0  0  0  0  0  0  0  0  0  0  0  0
    1.0194   -5.0615    4.0355 N   0  3  0  0  0  0  0  0  0  0  0  0
    1.9685   -5.0381    5.1565 C   0  0  0  0  0  0  0  0  0  0  0  0
    0.9908   -3.7419    3.3906 C   0  0  0  0  0  0  0  0  0  0  0  0
   -3.1581   -8.6620   -1.6833 O   0  5  0  0  0  0  0  0  0  0  0  0
   -1.8899   -6.5636   -3.4346 C   0  0  0  0  0  0  0  0  0  0  0  0
   -2.4807   -5.5004   -3.5227 O   0  0  0  0  0  0  0  0  0  0  0  0
   -1.6431   -7.3354   -4.5969 C   0  0  0  0  0  0  0  0  0  0  0  0
   -0.8977   -8.5049   -4.6767 C   0  0  0  0  0  0  0  0  0  0  0  0
   -0.9078   -8.9156   -5.9328 N   0  0  0  0  0  0  0  0  0  0  0  0
   -1.6226   -8.0730   -6.6791 C   0  0  0  0  0  0  0  0  0  0  0  0
   -2.1015   -7.0770   -5.8761 N   0  0  0  0  0  0  0  0  0  0  0  0
   -2.8724   -6.0821   -6.3897 C   0  0  0  0  0  0  0  0  0  0  0  0
   -3.1836   -6.0610   -7.7066 C   0  0  0  0  0  0  0  0  0  0  0  0
   -2.7111   -7.0695   -8.5567 C   0  0  0  0  0  0  0  0  0  0  0  0
   -1.9303   -8.0667   -8.0503 C   0  0  0  0  0  0  0  0  0  0  0  0
   -1.4153   -9.1604   -8.9501 C   0  0  0  0  0  0  0  0  0  0  0  0
   -0.1982   -9.1871   -3.5294 C   0  0  0  0  0  0  0  0  0  0  0  0
   -0.6379    1.1326    1.2713 H   0  0  0  0  0  0  0  0  0  0  0  0
   -1.7787    1.3270   -0.0811 H   0  0  0  0  0  0  0  0  0  0  0  0
   -2.3909    1.1408    1.5799 H   0  0  0  0  0  0  0  0  0  0  0  0
   -1.4847   -1.1661    1.6552 H   0  0  0  0  0  0  0  0  0  0  0  0
   -2.6255   -0.9717    0.3028 H   0  0  0  0  0  0  0  0  0  0  0  0
   -2.1540   -2.9518    0.7792 H   0  0  0  0  0  0  0  0  0  0  0  0
   -1.9687   -5.3539    0.2759 H   0  0  0  0  0  0  0  0  0  0  0  0
    1.3038   -4.5671   -2.3433 H   0  0  0  0  0  0  0  0  0  0  0  0
    2.8595   -1.7035   -3.2972 H   0  0  0  0  0  0  0  0  0  0  0  0
    2.8077   -3.2860   -2.4841 H   0  0  0  0  0  0  0  0  0  0  0  0
    1.6480   -2.9141   -3.7821 H   0  0  0  0  0  0  0  0  0  0  0  0
    0.9324   -8.2054    1.4360 H   0  0  0  0  0  0  0  0  0  0  0  0
    1.7806   -6.9513    0.5001 H   0  0  0  0  0  0  0  0  0  0  0  0
    0.2801   -5.2237    1.4554 H   0  0  0  0  0  0  0  0  0  0  0  0
   -0.5681   -6.4779    2.3913 H   0  0  0  0  0  0  0  0  0  0  0  0
    1.5472   -7.0380    3.5577 H   0  0  0  0  0  0  0  0  0  0  0  0
    2.3954   -5.7838    2.6218 H   0  0  0  0  0  0  0  0  0  0  0  0
    2.9637   -4.7936    4.7850 H   0  0  0  0  0  0  0  0  0  0  0  0
    1.6564   -4.2862    5.8812 H   0  0  0  0  0  0  0  0  0  0  0  0
    1.9898   -6.0172    5.6350 H   0  0  0  0  0  0  0  0  0  0  0  0
    0.2866   -3.7592    2.5588 H   0  0  0  0  0  0  0  0  0  0  0  0
    0.6786   -2.9900    4.1153 H   0  0  0  0  0  0  0  0  0  0  0  0
    1.9859   -3.4974    3.0191 H   0  0  0  0  0  0  0  0  0  0  0  0
   -3.2403   -5.3013   -5.7406 H   0  0  0  0  0  0  0  0  0  0  0  0
   -3.7975   -5.2656   -8.1028 H   0  0  0  0  0  0  0  0  0  0  0  0
   -2.9589   -7.0542   -9.6078 H   0  0  0  0  0  0  0  0  0  0  0  0
   -2.1371   -9.9765   -8.9798 H   0  0  0  0  0  0  0  0  0  0  0  0
   -1.2714   -8.7658   -9.9560 H   0  0  0  0  0  0  0  0  0  0  0  0
   -0.4647   -9.5299   -8.5655 H   0  0  0  0  0  0  0  0  0  0  0  0
   -0.9088   -9.8155   -2.9925 H   0  0  0  0  0  0  0  0  0  0  0  0
    0.6139   -9.8040   -3.9141 H   0  0  0  0  0  0  0  0  0  0  0  0
    0.2063   -8.4352   -2.8517 H   0  0  0  0  0  0  0  0  0  0  0  0
    0.0983   -5.2878    4.3794 H   0  0  0  0  0  0  0  0  0  0  0  0
  1  2  1  0  0  0  0
  1 39  1  0  0  0  0
  1 40  1  0  0  0  0
  1 41  1  0  0  0  0
  2  3  1  0  0  0  0
  2 42  1  0  0  0  0
  2 43  1  0  0  0  0
  3  4  1  0  0  0  0
  4  9  2  0  0  0  0
  4  5  1  0  0  0  0
  5  6  2  0  0  0  0
  5 44  1  0  0  0  0
  6  7  1  0  0  0  0
  6 45  1  0  0  0  0
  7  8  2  0  0  0  0
  7 12  1  0  0  0  0
  8  9  1  0  0  0  0
  8 46  1  0  0  0  0
  9 10  1  0  0  0  0
 10 11  1  0  0  0  0
 11 47  1  0  0  0  0
 11 48  1  0  0  0  0
 11 49  1  0  0  0  0
 12 13  1  6  0  0  0
 12 18  1  0  0  0  0
 12 14  1  0  0  0  0
 14 15  2  0  0  0  0
 14 26  1  0  0  0  0
 15 16  1  0  0  0  0
 15 25  1  0  0  0  0
 16 17  2  0  0  0  0
 16 18  1  0  0  0  0
 18 19  1  0  0  0  0
 19 20  1  0  0  0  0
 19 50  1  0  0  0  0
 19 51  1  0  0  0  0
 20 21  1  0  0  0  0
 20 52  1  0  0  0  0
 20 53  1  0  0  0  0
 21 22  1  0  0  0  0
 21 54  1  0  0  0  0
 21 55  1  0  0  0  0
 22 23  1  0  0  0  0
 22 24  1  0  0  0  0
 22 71  1  0  0  0  0
 23 56  1  0  0  0  0
 23 57  1  0  0  0  0
 23 58  1  0  0  0  0
 24 59  1  0  0  0  0
 24 60  1  0  0  0  0
 24 61  1  0  0  0  0
 26 27  2  0  0  0  0
 26 28  1  0  0  0  0
 28 32  1  0  0  0  0
 28 29  2  0  0  0  0
 29 30  1  0  0  0  0
 29 38  1  0  0  0  0
 30 31  2  0  0  0  0
 31 36  1  0  0  0  0
 31 32  1  0  0  0  0
 32 33  1  0  0  0  0
 33 34  2  0  0  0  0
 33 62  1  0  0  0  0
 34 35  1  0  0  0  0
 34 63  1  0  0  0  0
 35 36  2  0  0  0  0
 35 64  1  0  0  0  0
 36 37  1  0  0  0  0
 37 65  1  0  0  0  0
 37 66  1  0  0  0  0
 37 67  1  0  0  0  0
 38 68  1  0  0  0  0
 38 69  1  0  0  0  0
 38 70  1  0  0  0  0
M  CHG  2  22   1  25  -1
M  END
$$$$
ZINC13058245
 OpenBabel01252620473D

 43 45  0  0  0  0  0  0  0  0999 V2000
    0.5416    2.0758    0.6210 C   0  0  0  0  0  0  0  0  0  0  0  0
   -0.5204    1.2422    0.3386 C   0  0  0  0  0  0  0  0  0  0  0  0
   -1.8095    1.7716    0.2104 C   0  0  0  0  0  0  0  0  0  0  0  0
   -2.0151    3.1443    0.3804 C   0  0  0  0  0  0  0  0  0  0  0  0
   -0.9399    3.9704    0.6633 C   0  0  0  0  0  0  0  0  0  0  0  0
    0.3375    3.4337    0.7831 C   0  0  0  0  0  0  0  0  0  0  0  0
   -1.1388    5.3451    0.8281 N   0  0  0  0  0  0  0  0  0  0  0  0
   -0.1545    6.2108    0.5149 C   0  0  0  0  0  0  0  0  0  0  0  0
    0.8678    5.8068   -0.0046 O   0  0  0  0  0  0  0  0  0  0  0  0
   -0.3177    7.6500    0.8027 C   0  0  0  0  0  0  0  0  0  0  0  0
   -1.4909    8.1174    1.3995 C   0  0  0  0  0  0  0  0  0  0  0  0
   -1.6372    9.4617    1.6661 C   0  0  0  0  0  0  0  0  0  0  0  0
   -0.6237   10.3501    1.3436 C   0  0  0  0  0  0  0  0  0  0  0  0
    0.5419    9.8946    0.7520 C   0  0  0  0  0  0  0  0  0  0  0  0
    0.7034    8.5495    0.4845 C   0  0  0  0  0  0  0  0  0  0  0  0
    2.1685    7.9782   -0.2509 Cl  0  0  0  0  0  0  0  0  0  0  0  0
   -0.8165   12.0415    1.6836 Cl  0  0  0  0  0  0  0  0  0  0  0  0
   -2.9435    0.8875   -0.0960 C   0  0  0  0  0  0  0  0  0  0  0  0
   -3.8946    1.2854   -0.9770 C   0  0  0  0  0  0  0  0  0  0  0  0
   -3.9165    2.4610   -1.8734 C   0  0  0  0  0  0  0  0  0  0  0  0
   -2.9966    3.2568   -1.9075 O   0  0  0  0  0  0  0  0  0  0  0  0
   -4.9876    2.6035   -2.6360 N   0  0  0  0  0  0  0  0  0  0  0  0
   -6.0047    1.7191   -2.5950 C   0  0  0  0  0  0  0  0  0  0  0  0
   -7.4602    1.7310   -3.4963 S   0  0  0  0  0  0  0  0  0  0  0  0
   -5.4632    0.5284   -1.3796 S   0  0  0  0  0  0  0  0  0  0  0  0
   -5.0707    3.7481   -3.5465 C   0  0  0  0  0  0  0  0  0  0  0  0
   -4.4655    3.3685   -4.8995 C   0  0  0  0  0  0  0  0  0  0  0  0
   -4.5510    4.5460   -5.8361 C   0  0  0  0  0  0  0  0  0  0  0  0
   -5.0453    5.5824   -5.4601 O   0  0  0  0  0  0  0  0  0  0  0  0
    1.5365    1.6663    0.7155 H   0  0  0  0  0  0  0  0  0  0  0  0
   -0.3565    0.1823    0.2120 H   0  0  0  0  0  0  0  0  0  0  0  0
   -3.0078    3.5594    0.2870 H   0  0  0  0  0  0  0  0  0  0  0  0
    1.1738    4.0804    1.0042 H   0  0  0  0  0  0  0  0  0  0  0  0
   -1.9852    5.6753    1.1679 H   0  0  0  0  0  0  0  0  0  0  0  0
   -2.2821    7.4267    1.6512 H   0  0  0  0  0  0  0  0  0  0  0  0
   -2.5443    9.8238    2.1272 H   0  0  0  0  0  0  0  0  0  0  0  0
    1.3283   10.5918    0.5034 H   0  0  0  0  0  0  0  0  0  0  0  0
   -3.0191   -0.0787    0.3804 H   0  0  0  0  0  0  0  0  0  0  0  0
   -6.1150    4.0297   -3.6817 H   0  0  0  0  0  0  0  0  0  0  0  0
   -4.5194    4.5886   -3.1249 H   0  0  0  0  0  0  0  0  0  0  0  0
   -3.4212    3.0869   -4.7642 H   0  0  0  0  0  0  0  0  0  0  0  0
   -5.0168    2.5280   -5.3211 H   0  0  0  0  0  0  0  0  0  0  0  0
   -4.0781    4.4433   -7.0882 O   0  0  0  0  0  1  0  0  0  0  0  0
  1  6  2  0  0  0  0
  1  2  1  0  0  0  0
  1 30  1  0  0  0  0
  2  3  2  0  0  0  0
  2 31  1  0  0  0  0
  3  4  1  0  0  0  0
  3 18  1  0  0  0  0
  4  5  2  0  0  0  0
  4 32  1  0  0  0  0
  5  6  1  0  0  0  0
  5  7  1  0  0  0  0
  6 33  1  0  0  0  0
  7  8  1  0  0  0  0
  7 34  1  0  0  0  0
  8  9  2  0  0  0  0
  8 10  1  0  0  0  0
 10 15  2  0  0  0  0
 10 11  1  0  0  0  0
 11 12  2  0  0  0  0
 11 35  1  0  0  0  0
 12 13  1  0  0  0  0
 12 36  1  0  0  0  0
 13 14  2  0  0  0  0
 13 17  1  0  0  0  0
 14 15  1  0  0  0  0
 14 37  1  0  0  0  0
 15 16  1  0  0  0  0
 18 19  2  0  0  0  0
 18 38  1  0  0  0  0
 19 25  1  0  0  0  0
 19 20  1  0  0  0  0
 20 21  2  0  0  0  0
 20 22  1  0  0  0  0
 22 23  1  0  0  0  0
 22 26  1  0  0  0  0
 23 24  2  0  0  0  0
 23 25  1  0  0  0  0
 26 27  1  0  0  0  0
 26 39  1  0  0  0  0
 26 40  1  0  0  0  0
 27 28  1  0  0  0  0
 27 41  1  0  0  0  0
 27 42  1  0  0  0  0
 28 29  2  0  0  0  0
 28 43  1  0  0  0  0
M  END
$$$$
ZINC52311661
 OpenBabel01252620473D

 35 36  0  0  0  0  0  0  0  0999 V2000
   -0.1643   -0.0044    2.4448 C   0  0  0  0  0  0  0  0  0  0  0  0
   -0.3513   -0.5871    1.0676 C   0  0  0  0  0  0  0  0  0  0  0  0
   -0.1526   -1.9237    0.7125 C   0  0  0  0  0  0  0  0  0  0  0  0
   -0.4252   -2.0477   -0.6167 C   0  0  0  0  0  0  0  0  0  0  0  0
   -0.7840   -0.8201   -1.0751 N   0  0  0  0  0  0  0  0  0  0  0  0
   -0.7327    0.0719    0.0037 N   0  0  0  0  0  0  0  0  0  0  0  0
   -1.1619   -0.4892   -2.4513 C   0  0  0  0  0  0  0  0  0  0  0  0
   -0.3292   -3.5283   -1.5670 S   0  0  0  0  0  0  0  0  0  0  0  0
   -0.2643   -4.8457   -0.3216 C   0  0  0  0  0  0  0  0  0  0  0  0
   -0.3067   -6.1872   -1.0068 C   0  0  0  0  0  0  0  0  0  0  0  0
   -1.5256   -6.7949   -1.2589 C   0  0  0  0  0  0  0  0  0  0  0  0
   -1.5772   -8.0257   -1.8869 C   0  0  0  0  0  0  0  0  0  0  0  0
   -0.4098   -8.6601   -2.2680 C   0  0  0  0  0  0  0  0  0  0  0  0
    0.8270   -8.0509   -2.0159 C   0  0  0  0  0  0  0  0  0  0  0  0
    0.8668   -6.8021   -1.3851 C   0  0  0  0  0  0  0  0  0  0  0  0
    2.0742   -8.7166   -2.4169 C   0  0  0  0  0  0  0  0  0  0  0  0
    3.2654   -8.1251   -2.1717 C   0  0  0  0  0  0  0  0  0  0  0  0
    4.4661   -8.7659   -2.5577 C   0  0  0  0  0  0  0  0  0  0  0  0
    4.4268   -9.8567   -3.1141 O   0  0  0  0  0  0  0  0  0  0  0  0
    5.5452   -8.2301   -2.3356 O   0  0  0  0  0  1  0  0  0  0  0  0
   -0.4607   -9.8631   -2.8808 F   0  0  0  0  0  0  0  0  0  0  0  0
   -1.1006   -0.0731    2.9986 H   0  0  0  0  0  0  0  0  0  0  0  0
    0.6113   -0.5598    2.9721 H   0  0  0  0  0  0  0  0  0  0  0  0
    0.1316    1.0412    2.3597 H   0  0  0  0  0  0  0  0  0  0  0  0
    0.1617   -2.7175    1.3740 H   0  0  0  0  0  0  0  0  0  0  0  0
   -2.2289   -0.6657   -2.5875 H   0  0  0  0  0  0  0  0  0  0  0  0
   -0.9393    0.5597   -2.6471 H   0  0  0  0  0  0  0  0  0  0  0  0
   -0.5989   -1.1155   -3.1433 H   0  0  0  0  0  0  0  0  0  0  0  0
    0.6592   -4.7592    0.2510 H   0  0  0  0  0  0  0  0  0  0  0  0
   -1.1181   -4.7534    0.3497 H   0  0  0  0  0  0  0  0  0  0  0  0
   -2.4412   -6.3046   -0.9629 H   0  0  0  0  0  0  0  0  0  0  0  0
   -2.5318   -8.4925   -2.0797 H   0  0  0  0  0  0  0  0  0  0  0  0
    1.8154   -6.3235   -1.1914 H   0  0  0  0  0  0  0  0  0  0  0  0
    2.0396   -9.6781   -2.9074 H   0  0  0  0  0  0  0  0  0  0  0  0
    3.3001   -7.1635   -1.6813 H   0  0  0  0  0  0  0  0  0  0  0  0
  1  2  1  0  0  0  0
  1 22  1  0  0  0  0
  1 23  1  0  0  0  0
  1 24  1  0  0  0  0
  2  6  2  0  0  0  0
  2  3  1  0  0  0  0
  3  4  2  0  0  0  0
  3 25  1  0  0  0  0
  4  5  1  0  0  0  0
  4  8  1  0  0  0  0
  5  6  1  0  0  0  0
  5  7  1  0  0  0  0
  7 26  1  0  0  0  0
  7 27  1  0  0  0  0
  7 28  1  0  0  0  0
  8  9  1  0  0  0  0
  9 10  1  0  0  0  0
  9 29  1  0  0  0  0
  9 30  1  0  0  0  0
 10 15  2  0  0  0  0
 10 11  1  0  0  0  0
 11 12  2  0  0  0  0
 11 31  1  0  0  0  0
 12 13  1  0  0  0  0
 12 32  1  0  0  0  0
 13 14  2  0  0  0  0
 13 21  1  0  0  0  0
 14 15  1  0  0  0  0
 14 16  1  0  0  0  0
 15 33  1  0  0  0  0
 16 17  2  0  0  0  0
 16 34  1  0  0  0  0
 17 18  1  0  0  0  0
 17 35  1  0  0  0  0
 18 19  2  0  0  0  0
 18 20  1  0  0  0  0
M  END
$$$$
ZINC08837033
 OpenBabel01252620473D

 68 71  0  0  1  0  0  0  0  0999 V2000
    0.1859   -7.5913   -4.5315 C   0  0  0  0  0  0  0  0  0  0  0  0
   -0.0290   -7.2114   -3.0651 C   0  0  0  0  0  0  0  0  0  0  0  0
   -1.3663   -6.7407   -2.8860 O   0  0  0  0  0  0  0  0  0  0  0  0
   -1.7208   -6.3624   -1.6409 C   0  0  0  0  0  0  0  0  0  0  0  0
   -0.9155   -6.4307   -0.7323 O   0  0  0  0  0  0  0  0  0  0  0  0
   -3.0773   -5.8687   -1.3828 C   0  0  0  0  0  0  0  0  0  0  0  0
   -3.5596   -5.4515   -0.1768 C   0  0  0  0  0  0  0  0  0  0  0  0
   -4.9021   -5.0617   -0.3808 C   0  0  0  0  0  0  0  0  0  0  0  0
   -5.1838   -5.2611   -1.7211 C   0  0  0  0  0  0  0  0  0  0  0  0
   -4.0817   -5.7412   -2.3185 N   0  0  0  0  0  0  0  0  0  0  0  0
   -4.0049   -5.9653   -3.2592 H   0  0  0  0  0  0  0  0  0  0  0  0
   -6.5017   -4.9812   -2.3962 C   0  0  0  0  0  0  0  0  0  0  0  0
   -5.8285   -4.5412    0.6413 C   0  0  0  0  0  0  0  0  0  0  0  0
   -5.4348   -4.3456    1.7763 O   0  0  0  0  0  0  0  0  0  0  0  0
   -7.2247   -4.2590    0.2903 C   0  0  0  0  0  0  0  0  0  0  0  0
   -8.2749   -5.1018    0.4187 C   0  0  0  0  0  0  0  0  0  0  0  0
   -9.5019   -4.4239   -0.0491 C   0  0  0  0  0  0  0  0  0  0  0  0
  -10.6113   -4.9191   -0.0596 O   0  0  0  0  0  0  0  0  0  0  0  0
   -9.2090   -3.1770   -0.4610 N   0  0  0  0  0  0  0  0  0  0  0  0
   -7.7677   -2.9687   -0.2782 C   0  0  1  0  0  0  0  0  0  0  0  0
   -7.2974   -2.7547   -1.2379 H   0  0  0  0  0  0  0  0  0  0  0  0
   -7.5229   -1.8350    0.6840 C   0  0  0  0  0  0  0  0  0  0  0  0
   -8.2364   -1.7656    1.8660 C   0  0  0  0  0  0  0  0  0  0  0  0
   -8.0123   -0.7260    2.7488 C   0  0  0  0  0  0  0  0  0  0  0  0
   -7.0736    0.2452    2.4494 C   0  0  0  0  0  0  0  0  0  0  0  0
   -6.3598    0.1752    1.2663 C   0  0  0  0  0  0  0  0  0  0  0  0
   -6.5808   -0.8679    0.3868 C   0  0  0  0  0  0  0  0  0  0  0  0
   -6.7919    1.5516    3.5574 Cl  0  0  0  0  0  0  0  0  0  0  0  0
  -10.1611   -2.1984   -0.9921 C   0  0  0  0  0  0  0  0  0  0  0  0
  -10.7268   -1.3615    0.1570 C   0  0  0  0  0  0  0  0  0  0  0  0
  -11.7211   -0.3395   -0.3977 C   0  0  0  0  0  0  0  0  0  0  0  0
  -12.2642    0.4640    0.7057 N   0  0  0  0  0  0  0  0  0  0  0  0
  -13.0852   -0.3610    1.6038 C   0  0  0  0  0  0  0  0  0  0  0  0
  -13.5807    0.5002    2.7685 C   0  0  0  0  0  0  0  0  0  0  0  0
  -14.3028    1.6215    2.2523 O   0  0  0  0  0  0  0  0  0  0  0  0
  -13.5330    2.4472    1.3742 C   0  0  0  0  0  0  0  0  0  0  0  0
  -13.0371    1.6057    0.1953 C   0  0  0  0  0  0  0  0  0  0  0  0
   -8.2119   -6.3652    0.8992 O   0  5  0  0  0  0  0  0  0  0  0  0
   -2.8036   -5.4140    1.1263 C   0  0  0  0  0  0  0  0  0  0  0  0
    1.2059   -7.9504   -4.6681 H   0  0  0  0  0  0  0  0  0  0  0  0
   -0.5163   -8.3772   -4.8099 H   0  0  0  0  0  0  0  0  0  0  0  0
    0.0210   -6.7171   -5.1613 H   0  0  0  0  0  0  0  0  0  0  0  0
    0.1358   -8.0857   -2.4353 H   0  0  0  0  0  0  0  0  0  0  0  0
    0.6731   -6.4255   -2.7867 H   0  0  0  0  0  0  0  0  0  0  0  0
   -6.5544   -3.9269   -2.6675 H   0  0  0  0  0  0  0  0  0  0  0  0
   -6.5866   -5.5923   -3.2948 H   0  0  0  0  0  0  0  0  0  0  0  0
   -7.3175   -5.2222   -1.7146 H   0  0  0  0  0  0  0  0  0  0  0  0
   -8.9694   -2.5236    2.0995 H   0  0  0  0  0  0  0  0  0  0  0  0
   -8.5700   -0.6717    3.6720 H   0  0  0  0  0  0  0  0  0  0  0  0
   -5.6271    0.9333    1.0318 H   0  0  0  0  0  0  0  0  0  0  0  0
   -6.0203   -0.9253   -0.5345 H   0  0  0  0  0  0  0  0  0  0  0  0
   -9.6530   -1.5451   -1.7015 H   0  0  0  0  0  0  0  0  0  0  0  0
  -10.9746   -2.7197   -1.4967 H   0  0  0  0  0  0  0  0  0  0  0  0
  -11.2349   -2.0148    0.8664 H   0  0  0  0  0  0  0  0  0  0  0  0
   -9.9133   -0.8402    0.6616 H   0  0  0  0  0  0  0  0  0  0  0  0
  -11.2130    0.3138   -1.1070 H   0  0  0  0  0  0  0  0  0  0  0  0
  -12.5346   -0.8608   -0.9022 H   0  0  0  0  0  0  0  0  0  0  0  0
  -13.9395   -0.7571    1.0548 H   0  0  0  0  0  0  0  0  0  0  0  0
  -12.4860   -1.1856    1.9900 H   0  0  0  0  0  0  0  0  0  0  0  0
  -14.2364   -0.0926    3.4063 H   0  0  0  0  0  0  0  0  0  0  0  0
  -12.7282    0.8524    3.3492 H   0  0  0  0  0  0  0  0  0  0  0  0
  -14.1542    3.2626    1.0035 H   0  0  0  0  0  0  0  0  0  0  0  0
  -12.6791    2.8560    1.9143 H   0  0  0  0  0  0  0  0  0  0  0  0
  -12.4026    2.2168   -0.4467 H   0  0  0  0  0  0  0  0  0  0  0  0
  -13.8906    1.2411   -0.3763 H   0  0  0  0  0  0  0  0  0  0  0  0
   -2.3118   -4.4472    1.2334 H   0  0  0  0  0  0  0  0  0  0  0  0
   -3.4979   -5.5620    1.9535 H   0  0  0  0  0  0  0  0  0  0  0  0
   -2.0544   -6.2057    1.1347 H   0  0  0  0  0  0  0  0  0  0  0  0
  1  2  1  0  0  0  0
  1 40  1  0  0  0  0
  1 41  1  0  0  0  0
  1 42  1  0  0  0  0
  2  3  1  0  0  0  0
  2 43  1  0  0  0  0
  2 44  1  0  0  0  0
  3  4  1  0  0  0  0
  4  5  2  0  0  0  0
  4  6  1  0  0  0  0
  6 10  1  0  0  0  0
  6  7  2  0  0  0  0
  7  8  1  0  0  0  0
  7 39  1  0  0  0  0
  8  9  2  0  0  0  0
  8 13  1  0  0  0  0
  9 10  1  0  0  0  0
  9 12  1  0  0  0  0
 10 11  1  0  0  0  0
 12 45  1  0  0  0  0
 12 46  1  0  0  0  0
 12 47  1  0  0  0  0
 13 14  2  0  0  0  0
 13 15  1  0  0  0  0
 15 20  1  0  0  0  0
 15 16  2  0  0  0  0
 16 17  1  0  0  0  0
 16 38  1  0  0  0  0
 17 18  2  0  0  0  0
 17 19  1  0  0  0  0
 19 20  1  0  0  0  0
 19 29  1  0  0  0  0
 20 21  1  6  0  0  0
 20 22  1  0  0  0  0
 22 27  2  0  0  0  0
 22 23  1  0  0  0  0
 23 24  2  0  0  0  0
 23 48  1  0  0  0  0
 24 25  1  0  0  0  0
 24 49  1  0  0  0  0
 25 26  2  0  0  0  0
 25 28  1  0  0  0  0
 26 27  1  0  0  0  0
 26 50  1  0  0  0  0
 27 51  1  0  0  0  0
 29 30  1  0  0  0  0
 29 52  1  0  0  0  0
 29 53  1  0  0  0  0
 30 31  1  0  0  0  0
 30 54  1  0  0  0  0
 30 55  1  0  0  0  0
 31 32  1  0  0  0  0
 31 56  1  0  0  0  0
 31 57  1  0  0  0  0
 32 37  1  0  0  0  0
 32 33  1  0  0  0  0
 33 34  1  0  0  0  0
 33 58  1  0  0  0  0
 33 59  1  0  0  0  0
 34 35  1  0  0  0  0
 34 60  1  0  0  0  0
 34 61  1  0  0  0  0
 35 36  1  0  0  0  0
 36 37  1  0  0  0  0
 36 62  1  0  0  0  0
 36 63  1  0  0  0  0
 37 64  1  0  0  0  0
 37 65  1  0  0  0  0
 39 66  1  0  0  0  0
 39 67  1  0  0  0  0
 39 68  1  0  0  0  0
M  CHG  1  38  -1
M  END
$$$$
ZINC35457532
 OpenBabel01252620473D

 75 74  0  0  1  0  0  0  0  0999 V2000
   -0.0100    1.4890    0.1933 C   0  0  0  0  0  0  0  0  0  0  0  0
    0.0088   -0.0144    0.0915 C   0  0  0  0  0  0  0  0  0  0  0  0
    1.1400   -0.6431   -0.1112 C   0  0  0  0  0  0  0  0  0  0  0  0
    2.4373    0.1238   -0.1196 C   0  0  0  0  0  0  0  0  0  0  0  0
    3.4051   -0.5000    0.8878 C   0  0  0  0  0  0  0  0  0  0  0  0
    4.7222    0.2786    0.8792 C   0  0  2  0  0  0  0  0  0  0  0  0
    5.2749    0.3300   -0.5465 C   0  0  0  0  0  0  0  0  0  0  0  0
    5.7324   -0.4179    1.7931 C   0  0  2  0  0  0  0  0  0  0  0  0
    5.3386   -0.4544    2.8088 H   0  0  0  0  0  0  0  0  0  0  0  0
    7.0494    0.3608    1.7845 C   0  0  0  0  0  0  0  0  0  0  0  0
    8.0173   -0.2630    2.7920 C   0  0  1  0  0  0  0  0  0  0  0  0
    8.1379   -1.3236    2.5712 H   0  0  0  0  0  0  0  0  0  0  0  0
    9.3545    0.4253    2.6964 C   0  0  0  0  0  0  0  0  0  0  0  0
   10.4068   -0.2413    2.2909 C   0  0  0  0  0  0  0  0  0  0  0  0
   11.7440    0.4470    2.1953 C   0  0  0  0  0  0  0  0  0  0  0  0
   12.7533   -0.3926    2.7597 O   0  0  0  0  0  0  0  0  0  0  0  0
   14.0664    0.1695    2.7191 C   0  0  0  0  0  0  0  0  0  0  0  0
   15.0602   -0.8102    3.3465 C   0  0  1  0  0  0  0  0  0  0  0  0
   14.9848   -1.7751    2.8451 H   0  0  0  0  0  0  0  0  0  0  0  0
   16.4811   -0.2646    3.1915 C   0  0  1  0  0  0  0  0  0  0  0  0
   16.5565    0.7004    3.6928 H   0  0  0  0  0  0  0  0  0  0  0  0
   17.4749   -1.2443    3.8189 C   0  0  1  0  0  0  0  0  0  0  0  0
   17.3995   -2.2092    3.3175 H   0  0  0  0  0  0  0  0  0  0  0  0
   18.8959   -0.6987    3.6639 C   0  0  1  0  0  0  0  0  0  0  0  0
   18.9712    0.2663    4.1652 H   0  0  0  0  0  0  0  0  0  0  0  0
   19.8896   -1.6784    4.2912 C   0  0  0  0  0  0  0  0  0  0  0  0
   21.2027   -1.1163    4.2507 O   0  0  0  0  0  0  0  0  0  0  0  0
   19.1961   -0.5391    2.2759 O   0  0  0  0  0  0  0  0  0  0  0  0
   17.1747   -1.4039    5.2068 O   0  0  0  0  0  0  0  0  0  0  0  0
   16.7814   -0.1050    1.8035 O   0  0  0  0  0  0  0  0  0  0  0  0
   14.7599   -0.9698    4.7344 O   0  0  0  0  0  0  0  0  0  0  0  0
    9.4812    1.8804    3.0674 C   0  0  0  0  0  0  0  0  0  0  0  0
    7.4950   -0.1080    4.1131 O   0  0  0  0  0  0  0  0  0  0  0  0
    7.8167   -1.0530    5.0104 C   0  0  0  0  0  0  0  0  0  0  0  0
    8.5184   -1.9812    4.6849 O   0  0  0  0  0  0  0  0  0  0  0  0
    7.3026   -0.9564    6.4237 C   0  0  0  0  0  0  0  0  0  0  0  0
    5.9621   -1.7477    1.3231 O   0  0  0  0  0  0  0  0  0  0  0  0
    4.4924    1.6085    1.3492 O   0  0  0  0  0  0  0  0  0  0  0  0
   -1.2738   -0.7946    0.2230 C   0  0  0  0  0  0  0  0  0  0  0  0
    0.4515    1.9192   -0.6956 H   0  0  0  0  0  0  0  0  0  0  0  0
   -1.0407    1.8351    0.2711 H   0  0  0  0  0  0  0  0  0  0  0  0
    0.5455    1.8003    1.0779 H   0  0  0  0  0  0  0  0  0  0  0  0
    1.1430   -1.7110   -0.2722 H   0  0  0  0  0  0  0  0  0  0  0  0
    2.8758    0.0850   -1.1168 H   0  0  0  0  0  0  0  0  0  0  0  0
    2.2475    1.1618    0.1536 H   0  0  0  0  0  0  0  0  0  0  0  0
    2.9666   -0.4611    1.8850 H   0  0  0  0  0  0  0  0  0  0  0  0
    3.5949   -1.5380    0.6146 H   0  0  0  0  0  0  0  0  0  0  0  0
    4.5552    0.8262   -1.1976 H   0  0  0  0  0  0  0  0  0  0  0  0
    6.2132    0.8847   -0.5526 H   0  0  0  0  0  0  0  0  0  0  0  0
    5.4502   -0.6843   -0.9050 H   0  0  0  0  0  0  0  0  0  0  0  0
    7.4879    0.3219    0.7874 H   0  0  0  0  0  0  0  0  0  0  0  0
    6.8596    1.3988    2.0578 H   0  0  0  0  0  0  0  0  0  0  0  0
   10.3160   -1.2841    2.0250 H   0  0  0  0  0  0  0  0  0  0  0  0
   11.9777    0.6430    1.1488 H   0  0  0  0  0  0  0  0  0  0  0  0
   11.7075    1.3892    2.7421 H   0  0  0  0  0  0  0  0  0  0  0  0
   14.3484    0.3598    1.6835 H   0  0  0  0  0  0  0  0  0  0  0  0
   14.0782    1.1060    3.2768 H   0  0  0  0  0  0  0  0  0  0  0  0
   19.6076   -1.8686    5.3268 H   0  0  0  0  0  0  0  0  0  0  0  0
   19.8778   -2.6148    3.7336 H   0  0  0  0  0  0  0  0  0  0  0  0
   21.8857   -1.6844    4.6326 H   0  0  0  0  0  0  0  0  0  0  0  0
   19.1483   -1.3595    1.7663 H   0  0  0  0  0  0  0  0  0  0  0  0
   17.2224   -0.5834    5.7164 H   0  0  0  0  0  0  0  0  0  0  0  0
   16.7336   -0.9254    1.2939 H   0  0  0  0  0  0  0  0  0  0  0  0
   14.8077   -0.1493    5.2441 H   0  0  0  0  0  0  0  0  0  0  0  0
    9.7178    1.9657    4.1280 H   0  0  0  0  0  0  0  0  0  0  0  0
   10.2774    2.3372    2.4796 H   0  0  0  0  0  0  0  0  0  0  0  0
    8.5400    2.3907    2.8629 H   0  0  0  0  0  0  0  0  0  0  0  0
    6.3443   -1.4704    6.4976 H   0  0  0  0  0  0  0  0  0  0  0  0
    8.0175   -1.4210    7.1029 H   0  0  0  0  0  0  0  0  0  0  0  0
    7.1743    0.0921    6.6927 H   0  0  0  0  0  0  0  0  0  0  0  0
    6.3137   -1.7916    0.4234 H   0  0  0  0  0  0  0  0  0  0  0  0
    4.1409    1.6524    2.2490 H   0  0  0  0  0  0  0  0  0  0  0  0
   -1.7278   -0.9158   -0.7605 H   0  0  0  0  0  0  0  0  0  0  0  0
   -1.0605   -1.7754    0.6481 H   0  0  0  0  0  0  0  0  0  0  0  0
   -1.9608   -0.2569    0.8765 H   0  0  0  0  0  0  0  0  0  0  0  0
  1  2  1  0  0  0  0
  1 40  1  0  0  0  0
  1 41  1  0  0  0  0
  1 42  1  0  0  0  0
  2  3  2  0  0  0  0
  2 39  1  0  0  0  0
  3  4  1  0  0  0  0
  3 43  1  0  0  0  0
  4  5  1  0  0  0  0
  4 44  1  0  0  0  0
  4 45  1  0  0  0  0
  5  6  1  0  0  0  0
  5 46  1  0  0  0  0
  5 47  1  0  0  0  0
  6  7  1  0  0  0  0
  6  8  1  0  0  0  0
  6 38  1  1  0  0  0
  7 48  1  0  0  0  0
  7 49  1  0  0  0  0
  7 50  1  0  0  0  0
  8  9  1  1  0  0  0
  8 10  1  0  0  0  0
  8 37  1  0  0  0  0
 10 11  1  0  0  0  0
 10 51  1  0  0  0  0
 10 52  1  0  0  0  0
 11 12  1  6  0  0  0
 11 13  1  0  0  0  0
 11 33  1  0  0  0  0
 13 14  2  0  0  0  0
 13 32  1  0  0  0  0
 14 15  1  0  0  0  0
 14 53  1  0  0  0  0
 15 16  1  0  0  0  0
 15 54  1  0  0  0  0
 15 55  1  0  0  0  0
 16 17  1  0  0  0  0
 17 18  1  0  0  0  0
 17 56  1  0  0  0  0
 17 57  1  0  0  0  0
 18 19  1  6  0  0  0
 18 20  1  0  0  0  0
 18 31  1  0  0  0  0
 20 21  1  1  0  0  0
 20 22  1  0  0  0  0
 20 30  1  0  0  0  0
 22 23  1  6  0  0  0
 22 24  1  0  0  0  0
 22 29  1  0  0  0  0
 24 25  1  1  0  0  0
 24 26  1  0  0  0  0
 24 28  1  0  0  0  0
 26 27  1  0  0  0  0
 26 58  1  0  0  0  0
 26 59  1  0  0  0  0
 27 60  1  0  0  0  0
 28 61  1  0  0  0  0
 29 62  1  0  0  0  0
 30 63  1  0  0  0  0
 31 64  1  0  0  0  0
 32 65  1  0  0  0  0
 32 66  1  0  0  0  0
 32 67  1  0  0  0  0
 33 34  1  0  0  0  0
 34 35  2  0  0  0  0
 34 36  1  0  0  0  0
 36 68  1  0  0  0  0
 36 69  1  0  0  0  0
 36 70  1  0  0  0  0
 37 71  1  0  0  0  0
 38 72  1  0  0  0  0
 39 73  1  0  0  0  0
 39 74  1  0  0  0  0
 39 75  1  0  0  0  0
M  END
$$$$
ZINC45536950
 OpenBabel01252620473D

 57 59  0  0  1  0  0  0  0  0999 V2000
   -0.0173    1.4248    0.0099 C   0  0  0  0  0  0  0  0  0  0  0  0
    0.0021   -0.0041    0.0020 O   0  0  0  0  0  0  0  0  0  0  0  0
   -1.1855   -0.6297    0.0100 C   0  0  0  0  0  0  0  0  0  0  0  0
   -2.2076    0.0145    0.0232 O   0  0  0  0  0  0  0  0  0  0  0  0
   -1.2439   -2.1355    0.0025 C   0  0  0  0  0  0  0  0  0  0  0  0
   -2.7051   -2.5893    0.0140 C   0  0  2  0  0  0  0  0  0  0  0  0
   -3.2188   -2.1386    0.8632 H   0  0  0  0  0  0  0  0  0  0  0  0
   -2.7639   -4.0906    0.1303 C   0  0  0  0  0  0  0  0  0  0  0  0
   -2.5584   -4.8790   -0.9864 C   0  0  0  0  0  0  0  0  0  0  0  0
   -2.6124   -6.2561   -0.8797 C   0  0  0  0  0  0  0  0  0  0  0  0
   -2.8715   -6.8449    0.3438 C   0  0  0  0  0  0  0  0  0  0  0  0
   -3.0761   -6.0566    1.4608 C   0  0  0  0  0  0  0  0  0  0  0  0
   -3.0179   -4.6795    1.3549 C   0  0  0  0  0  0  0  0  0  0  0  0
   -3.3564   -2.1699   -1.2294 N   0  0  0  0  0  0  0  0  0  0  0  0
   -4.6918   -1.9910   -1.2635 C   0  0  0  0  0  0  0  0  0  0  0  0
   -5.3565   -2.1778   -0.2614 O   0  0  0  0  0  0  0  0  0  0  0  0
   -5.3429   -1.5718   -2.5063 C   0  0  0  0  0  0  0  0  0  0  0  0
   -6.6786   -1.3928   -2.5404 C   0  0  0  0  0  0  0  0  0  0  0  0
   -7.3331   -0.9714   -3.7898 C   0  0  0  0  0  0  0  0  0  0  0  0
   -6.5735   -0.7613   -4.9449 C   0  0  0  0  0  0  0  0  0  0  0  0
   -7.1939   -0.3667   -6.1113 C   0  0  0  0  0  0  0  0  0  0  0  0
   -8.5647   -0.1784   -6.1408 C   0  0  0  0  0  0  0  0  0  0  0  0
   -9.3234   -0.3844   -5.0017 C   0  0  0  0  0  0  0  0  0  0  0  0
   -8.7184   -0.7848   -3.8291 C   0  0  0  0  0  0  0  0  0  0  0  0
   -9.3481    0.3266   -7.6361 S   0  0  0  0  0  0  0  0  0  0  0  0
  -10.5636    0.9613   -7.2635 O   0  0  0  0  0  0  0  0  0  0  0  0
   -8.3548    0.9801   -8.4143 O   0  0  0  0  0  0  0  0  0  0  0  0
   -9.7651   -1.0486   -8.4590 N   0  0  0  0  0  0  0  0  0  0  0  0
  -10.7616   -1.9643   -7.8979 C   0  0  0  0  0  0  0  0  0  0  0  0
  -11.2303   -2.9146   -8.9695 C   0  0  0  0  0  0  0  0  0  0  0  0
  -10.6844   -4.1106   -9.2540 C   0  0  0  0  0  0  0  0  0  0  0  0
  -11.4330   -4.6593  -10.3205 C   0  0  0  0  0  0  0  0  0  0  0  0
  -12.3915   -3.7657  -10.6240 C   0  0  0  0  0  0  0  0  0  0  0  0
  -12.2675   -2.7135   -9.7986 O   0  0  0  0  0  0  0  0  0  0  0  0
    1.0053    1.8021    0.0021 H   0  0  0  0  0  0  0  0  0  0  0  0
   -0.5445    1.7859   -0.8732 H   0  0  0  0  0  0  0  0  0  0  0  0
   -0.5275    1.7763    0.9067 H   0  0  0  0  0  0  0  0  0  0  0  0
   -0.7531   -2.5137   -0.8943 H   0  0  0  0  0  0  0  0  0  0  0  0
   -0.7361   -2.5233    0.8856 H   0  0  0  0  0  0  0  0  0  0  0  0
   -2.3560   -4.4189   -1.9424 H   0  0  0  0  0  0  0  0  0  0  0  0
   -2.4525   -6.8720   -1.7523 H   0  0  0  0  0  0  0  0  0  0  0  0
   -2.9144   -7.9209    0.4271 H   0  0  0  0  0  0  0  0  0  0  0  0
   -3.2789   -6.5166    2.4166 H   0  0  0  0  0  0  0  0  0  0  0  0
   -3.1741   -4.0637    2.2282 H   0  0  0  0  0  0  0  0  0  0  0  0
   -2.8266   -2.0210   -2.0282 H   0  0  0  0  0  0  0  0  0  0  0  0
   -4.7530   -1.4060   -3.3956 H   0  0  0  0  0  0  0  0  0  0  0  0
   -7.2685   -1.5586   -1.6510 H   0  0  0  0  0  0  0  0  0  0  0  0
   -5.5036   -0.9075   -4.9233 H   0  0  0  0  0  0  0  0  0  0  0  0
   -6.6085   -0.2036   -7.0042 H   0  0  0  0  0  0  0  0  0  0  0  0
  -10.3926   -0.2351   -5.0325 H   0  0  0  0  0  0  0  0  0  0  0  0
   -9.3123   -0.9494   -2.9422 H   0  0  0  0  0  0  0  0  0  0  0  0
   -9.3496   -1.2479   -9.3126 H   0  0  0  0  0  0  0  0  0  0  0  0
  -10.3152   -2.5303   -7.0803 H   0  0  0  0  0  0  0  0  0  0  0  0
  -11.6103   -1.3923   -7.5230 H   0  0  0  0  0  0  0  0  0  0  0  0
   -9.8366   -4.5644   -8.7624 H   0  0  0  0  0  0  0  0  0  0  0  0
  -11.2668   -5.6127  -10.7998 H   0  0  0  0  0  0  0  0  0  0  0  0
  -13.1370   -3.8773  -11.3975 H   0  0  0  0  0  0  0  0  0  0  0  0
  1  2  1  0  0  0  0
  1 35  1  0  0  0  0
  1 36  1  0  0  0  0
  1 37  1  0  0  0  0
  2  3  1  0  0  0  0
  3  4  2  0  0  0  0
  3  5  1  0  0  0  0
  5  6  1  0  0  0  0
  5 38  1  0  0  0  0
  5 39  1  0  0  0  0
  6  7  1  1  0  0  0
  6  8  1  0  0  0  0
  6 14  1  0  0  0  0
  8 13  2  0  0  0  0
  8  9  1  0  0  0  0
  9 10  2  0  0  0  0
  9 40  1  0  0  0  0
 10 11  1  0  0  0  0
 10 41  1  0  0  0  0
 11 12  2  0  0  0  0
 11 42  1  0  0  0  0
 12 13  1  0  0  0  0
 12 43  1  0  0  0  0
 13 44  1  0  0  0  0
 14 15  1  0  0  0  0
 14 45  1  0  0  0  0
 15 16  2  0  0  0  0
 15 17  1  0  0  0  0
 17 18  2  0  0  0  0
 17 46  1  0  0  0  0
 18 19  1  0  0  0  0
 18 47  1  0  0  0  0
 19 24  2  0  0  0  0
 19 20  1  0  0  0  0
 20 21  2  0  0  0  0
 20 48  1  0  0  0  0
 21 22  1  0  0  0  0
 21 49  1  0  0  0  0
 22 23  2  0  0  0  0
 22 25  1  0  0  0  0
 23 24  1  0  0  0  0
 23 50  1  0  0  0  0
 24 51  1  0  0  0  0
 25 26  2  0  0  0  0
 25 27  2  0  0  0  0
 25 28  1  0  0  0  0
 28 29  1  0  0  0  0
 28 52  1  0  0  0  0
 29 30  1  0  0  0  0
 29 53  1  0  0  0  0
 29 54  1  0  0  0  0
 30 34  1  0  0  0  0
 30 31  2  0  0  0  0
 31 32  1  0  0  0  0
 31 55  1  0  0  0  0
 32 33  2  0  0  0  0
 32 56  1  0  0  0  0
 33 34  1  0  0  0  0
 33 57  1  0  0  0  0
M  END
$$$$
ZINC16115501
 OpenBabel01252620473D

 48 50  0  0  1  0  0  0  0  0999 V2000
   -0.5368    1.4472    0.0883 C   0  0  0  0  0  0  0  0  0  0  0  0
   -0.2460   -0.0306    0.0393 C   0  0  0  0  0  0  0  0  0  0  0  0
   -0.3468   -0.7157   -1.1573 C   0  0  0  0  0  0  0  0  0  0  0  0
   -0.0801   -2.0711   -1.2022 C   0  0  0  0  0  0  0  0  0  0  0  0
    0.2881   -2.7418   -0.0506 C   0  0  0  0  0  0  0  0  0  0  0  0
    0.3898   -2.0567    1.1455 C   0  0  0  0  0  0  0  0  0  0  0  0
    0.1271   -0.7000    1.1896 C   0  0  0  0  0  0  0  0  0  0  0  0
    0.2410    0.0346    2.4695 N   0  0  0  0  0  4  0  0  0  0  0  0
    0.6744    1.1632    2.4822 O   0  0  0  0  0  0  0  0  0  0  0  0
   -0.0993   -0.4939    3.5022 O   0  5  0  0  0  0  0  0  0  0  0  0
    0.6271   -4.4699   -0.1077 S   0  0  0  0  0  0  0  0  0  0  0  0
    0.4202   -4.9680    1.2070 O   0  0  0  0  0  0  0  0  0  0  0  0
   -0.0690   -4.9833   -1.2351 O   0  0  0  0  0  0  0  0  0  0  0  0
    2.1116   -4.6278   -0.4041 O   0  0  0  0  0  0  0  0  0  0  0  0
    2.9182   -4.3583    0.6552 C   0  0  0  0  0  0  0  0  0  0  0  0
    3.3804   -3.0649    0.8621 C   0  0  0  0  0  0  0  0  0  0  0  0
    4.1985   -2.7867    1.9355 C   0  0  0  0  0  0  0  0  0  0  0  0
    4.5630   -3.8083    2.8166 C   0  0  0  0  0  0  0  0  0  0  0  0
    4.0957   -5.1080    2.6045 C   0  0  0  0  0  0  0  0  0  0  0  0
    3.2737   -5.3758    1.5313 C   0  0  0  0  0  0  0  0  0  0  0  0
    5.4384   -3.5158    3.9661 C   0  0  0  0  0  0  0  0  0  0  0  0
    5.7758   -4.4661    4.7833 N   0  0  0  0  0  0  0  0  0  0  0  0
    6.6077   -4.1882    5.8758 N   0  0  0  0  0  0  0  0  0  0  0  0
    6.9625   -5.1874    6.7350 C   0  0  0  0  0  0  0  0  0  0  0  0
    6.6215   -6.4689    6.6876 N   0  0  0  0  0  0  0  0  0  0  0  0
    7.0051   -7.3675    7.5523 C   0  0  0  0  0  0  0  0  0  0  0  0
    6.6690   -8.5330    7.4712 O   0  0  0  0  0  0  0  0  0  0  0  0
    7.9041   -6.8543    8.6707 C   0  0  1  0  0  0  0  0  0  0  0  0
    8.8859   -7.3269    8.6408 H   0  0  0  0  0  0  0  0  0  0  0  0
    8.0025   -5.0798    8.1852 S   0  0  0  0  0  0  0  0  0  0  0  0
    7.2464   -7.0292   10.0411 C   0  0  0  0  0  0  0  0  0  0  0  0
    8.2175   -6.6234   11.1197 C   0  0  0  0  0  0  0  0  0  0  0  0
    9.3322   -6.2307   10.8202 O   0  0  0  0  0  0  0  0  0  0  0  0
    7.8883   -6.6877   12.2919 O   0  0  0  0  0  1  0  0  0  0  0  0
    0.3955    2.0043   -0.0038 H   0  0  0  0  0  0  0  0  0  0  0  0
   -1.2021    1.7140   -0.7328 H   0  0  0  0  0  0  0  0  0  0  0  0
   -1.0143    1.6923    1.0371 H   0  0  0  0  0  0  0  0  0  0  0  0
   -0.6344   -0.1919   -2.0569 H   0  0  0  0  0  0  0  0  0  0  0  0
   -0.1595   -2.6065   -2.1369 H   0  0  0  0  0  0  0  0  0  0  0  0
    0.6770   -2.5807    2.0451 H   0  0  0  0  0  0  0  0  0  0  0  0
    3.0984   -2.2761    0.1804 H   0  0  0  0  0  0  0  0  0  0  0  0
    4.5576   -1.7808    2.0954 H   0  0  0  0  0  0  0  0  0  0  0  0
    4.3751   -5.9007    3.2827 H   0  0  0  0  0  0  0  0  0  0  0  0
    2.9084   -6.3791    1.3691 H   0  0  0  0  0  0  0  0  0  0  0  0
    5.7990   -2.5107    4.1284 H   0  0  0  0  0  0  0  0  0  0  0  0
    6.9316   -3.2855    6.0215 H   0  0  0  0  0  0  0  0  0  0  0  0
    6.3561   -6.4030   10.0993 H   0  0  0  0  0  0  0  0  0  0  0  0
    6.9659   -8.0734   10.1789 H   0  0  0  0  0  0  0  0  0  0  0  0
  1  2  1  0  0  0  0
  1 35  1  0  0  0  0
  1 36  1  0  0  0  0
  1 37  1  0  0  0  0
  2  7  2  0  0  0  0
  2  3  1  0  0  0  0
  3  4  2  0  0  0  0
  3 38  1  0  0  0  0
  4  5  1  0  0  0  0
  4 39  1  0  0  0  0
  5  6  2  0  0  0  0
  5 11  1  0  0  0  0
  6  7  1  0  0  0  0
  6 40  1  0  0  0  0
  7  8  1  0  0  0  0
  8  9  2  0  0  0  0
  8 10  1  0  0  0  0
 11 12  2  0  0  0  0
 11 13  2  0  0  0  0
 11 14  1  0  0  0  0
 14 15  1  0  0  0  0
 15 20  2  0  0  0  0
 15 16  1  0  0  0  0
 16 17  2  0  0  0  0
 16 41  1  0  0  0  0
 17 18  1  0  0  0  0
 17 42  1  0  0  0  0
 18 19  2  0  0  0  0
 18 21  1  0  0  0  0
 19 20  1  0  0  0  0
 19 43  1  0  0  0  0
 20 44  1  0  0  0  0
 21 22  2  0  0  0  0
 21 45  1  0  0  0  0
 22 23  1  0  0  0  0
 23 24  1  0  0  0  0
 23 46  1  0  0  0  0
 24 30  1  0  0  0  0
 24 25  2  0  0  0  0
 25 26  1  0  0  0  0
 26 27  2  0  0  0  0
 26 28  1  0  0  0  0
 28 29  1  6  0  0  0
 28 30  1  0  0  0  0
 28 31  1  0  0  0  0
 31 32  1  0  0  0  0
 31 47  1  0  0  0  0
 31 48  1  0  0  0  0
 32 33  2  0  0  0  0
 32 34  1  0  0  0  0
M  CHG  1  10  -1
M  END
$$$$
ZINC33757982
 OpenBabel01252620473D

 57 59  0  0  1  0  0  0  0  0999 V2000
    6.2717    0.4607    5.6631 C   0  0  0  0  0  0  0  0  0  0  0  0
    5.1616   -0.5710    5.4530 C   0  0  0  0  0  0  0  0  0  0  0  0
    4.2092   -0.5462    6.6503 C   0  0  0  0  0  0  0  0  0  0  0  0
    5.7789   -1.9646    5.3210 C   0  0  0  0  0  0  0  0  0  0  0  0
    4.3981   -0.2386    4.1969 C   0  0  0  0  0  0  0  0  0  0  0  0
    5.0527   -0.2001    2.9800 C   0  0  0  0  0  0  0  0  0  0  0  0
    4.3525    0.1052    1.8279 C   0  0  0  0  0  0  0  0  0  0  0  0
    2.9977    0.3718    1.8926 C   0  0  0  0  0  0  0  0  0  0  0  0
    2.3442    0.3384    3.1102 C   0  0  0  0  0  0  0  0  0  0  0  0
    3.0432    0.0280    4.2616 C   0  0  0  0  0  0  0  0  0  0  0  0
    2.2344    0.7050    0.6367 C   0  0  1  0  0  0  0  0  0  0  0  0
    2.9568    0.8838   -0.1733 H   0  0  0  0  0  0  0  0  0  0  0  0
    1.2746   -0.4135    0.3025 C   0  0  0  0  0  0  0  0  0  0  0  0
    1.5944   -1.7244    0.0284 C   0  0  0  0  0  0  0  0  0  0  0  0
    3.0087   -2.1281   -0.0986 C   0  0  0  0  0  0  0  0  0  0  0  0
    3.8962   -1.4007   -0.9023 C   0  0  0  0  0  0  0  0  0  0  0  0
    5.2115   -1.8114   -0.9871 C   0  0  0  0  0  0  0  0  0  0  0  0
    5.6321   -2.8769   -0.3341 N   0  0  0  0  0  0  0  0  0  0  0  0
    4.8299   -3.5934    0.4287 C   0  0  0  0  0  0  0  0  0  0  0  0
    3.5003   -3.2530    0.5766 C   0  0  0  0  0  0  0  0  0  0  0  0
    0.6147   -2.6405   -0.1241 O   0  0  0  0  0  0  0  0  0  0  0  0
   -0.0121    0.1558    0.3281 C   0  0  0  0  0  0  0  0  0  0  0  0
   -1.0567   -0.4290    0.1088 O   0  5  0  0  0  0  0  0  0  0  0  0
    0.1272    1.5980    0.6702 C   0  0  0  0  0  0  0  0  0  0  0  0
   -0.7947    2.3814    0.7699 O   0  0  0  0  0  0  0  0  0  0  0  0
    1.4227    1.9072    0.8458 N   0  0  0  0  0  0  0  0  0  0  0  0
    1.9409    3.2334    1.1906 C   0  0  0  0  0  0  0  0  0  0  0  0
    2.0075    3.3751    2.7126 C   0  0  0  0  0  0  0  0  0  0  0  0
    2.5487    4.7601    3.0727 C   0  0  0  0  0  0  0  0  0  0  0  0
    2.6109    4.8926    4.4941 O   0  0  0  0  0  0  0  0  0  0  0  0
    3.1058    6.1570    4.9391 C   0  0  0  0  0  0  0  0  0  0  0  0
    6.9564    0.4430    4.8023 H   0  0  0  0  0  0  0  0  0  0  0  0
    6.8289    0.2182    6.5799 H   0  0  0  0  0  0  0  0  0  0  0  0
    5.8278    1.4627    5.7579 H   0  0  0  0  0  0  0  0  0  0  0  0
    3.4111   -1.2879    6.4993 H   0  0  0  0  0  0  0  0  0  0  0  0
    3.7655    0.4558    6.7451 H   0  0  0  0  0  0  0  0  0  0  0  0
    4.7666   -0.7887    7.5671 H   0  0  0  0  0  0  0  0  0  0  0  0
    4.9808   -2.7064    5.1700 H   0  0  0  0  0  0  0  0  0  0  0  0
    6.3362   -2.2071    6.2379 H   0  0  0  0  0  0  0  0  0  0  0  0
    6.4636   -1.9823    4.4603 H   0  0  0  0  0  0  0  0  0  0  0  0
    6.1113   -0.4080    2.9295 H   0  0  0  0  0  0  0  0  0  0  0  0
    4.8641    0.1356    0.8772 H   0  0  0  0  0  0  0  0  0  0  0  0
    1.2865    0.5510    3.1614 H   0  0  0  0  0  0  0  0  0  0  0  0
    2.5319   -0.0019    5.2124 H   0  0  0  0  0  0  0  0  0  0  0  0
    3.5577   -0.5297   -1.4437 H   0  0  0  0  0  0  0  0  0  0  0  0
    5.9045   -1.2550   -1.6008 H   0  0  0  0  0  0  0  0  0  0  0  0
    5.2185   -4.4589    0.9447 H   0  0  0  0  0  0  0  0  0  0  0  0
    2.8493   -3.8443    1.2034 H   0  0  0  0  0  0  0  0  0  0  0  0
    1.2745    4.0059    0.7793 H   0  0  0  0  0  0  0  0  0  0  0  0
    2.9486    3.3550    0.7666 H   0  0  0  0  0  0  0  0  0  0  0  0
    0.9997    3.2536    3.1365 H   0  0  0  0  0  0  0  0  0  0  0  0
    2.6739    2.6027    3.1240 H   0  0  0  0  0  0  0  0  0  0  0  0
    3.5564    4.8816    2.6487 H   0  0  0  0  0  0  0  0  0  0  0  0
    1.8823    5.5326    2.6612 H   0  0  0  0  0  0  0  0  0  0  0  0
    3.1222    6.1780    6.0387 H   0  0  0  0  0  0  0  0  0  0  0  0
    2.4510    6.9587    4.5667 H   0  0  0  0  0  0  0  0  0  0  0  0
    4.1252    6.3078    4.5542 H   0  0  0  0  0  0  0  0  0  0  0  0
  1  2  1  0  0  0  0
  1 32  1  0  0  0  0
  1 33  1  0  0  0  0
  1 34  1  0  0  0  0
  2  3  1  0  0  0  0
  2  4  1  0  0  0  0
  2  5  1  0  0  0  0
  3 35  1  0  0  0  0
  3 36  1  0  0  0  0
  3 37  1  0  0  0  0
  4 38  1  0  0  0  0
  4 39  1  0  0  0  0
  4 40  1  0  0  0  0
  5 10  2  0  0  0  0
  5  6  1  0  0  0  0
  6  7  2  0  0  0  0
  6 41  1  0  0  0  0
  7  8  1  0  0  0  0
  7 42  1  0  0  0  0
  8  9  2  0  0  0  0
  8 11  1  0  0  0  0
  9 10  1  0  0  0  0
  9 43  1  0  0  0  0
 10 44  1  0  0  0  0
 11 13  1  0  0  0  0
 11 26  1  0  0  0  0
 11 12  1  6  0  0  0
 13 22  2  0  0  0  0
 13 14  1  0  0  0  0
 14 21  2  0  0  0  0
 14 15  1  0  0  0  0
 15 20  2  0  0  0  0
 15 16  1  0  0  0  0
 16 17  2  0  0  0  0
 16 45  1  0  0  0  0
 17 18  1  0  0  0  0
 17 46  1  0  0  0  0
 18 19  2  0  0  0  0
 19 20  1  0  0  0  0
 19 47  1  0  0  0  0
 20 48  1  0  0  0  0
 22 24  1  0  0  0  0
 22 23  1  0  0  0  0
 24 26  1  0  0  0  0
 24 25  2  0  0  0  0
 26 27  1  0  0  0  0
 27 28  1  0  0  0  0
 27 49  1  0  0  0  0
 27 50  1  0  0  0  0
 28 29  1  0  0  0  0
 28 51  1  0  0  0  0
 28 52  1  0  0  0  0
 29 30  1  0  0  0  0
 29 53  1  0  0  0  0
 29 54  1  0  0  0  0
 30 31  1  0  0  0  0
 31 55  1  0  0  0  0
 31 56  1  0  0  0  0
 31 57  1  0  0  0  0
M  CHG  1  23  -1
M  END
$$$$
ZINC40100773
 OpenBabel01252620473D

 63 65  0  0  1  0  0  0  0  0999 V2000
   -4.0615    1.8548    1.7749 C   0  0  0  0  0  0  0  0  0  0  0  0
   -4.0735    0.3735    2.1575 C   0  0  0  0  0  0  0  0  0  0  0  0
   -4.1750   -0.4230    0.9754 O   0  0  0  0  0  0  0  0  0  0  0  0
   -4.1985   -1.7718    1.1404 C   0  0  0  0  0  0  0  0  0  0  0  0
   -4.1310   -2.3163    2.4163 C   0  0  0  0  0  0  0  0  0  0  0  0
   -4.1540   -3.6879    2.5905 C   0  0  0  0  0  0  0  0  0  0  0  0
   -4.2442   -4.5251    1.4976 C   0  0  0  0  0  0  0  0  0  0  0  0
   -4.3130   -3.9871    0.2107 C   0  0  0  0  0  0  0  0  0  0  0  0
   -4.2954   -2.6020    0.0371 C   0  0  0  0  0  0  0  0  0  0  0  0
   -4.4098   -4.8810   -0.9632 C   0  0  0  0  0  0  0  0  0  0  0  0
   -4.5784   -4.4117   -2.0729 O   0  0  0  0  0  0  0  0  0  0  0  0
   -4.3027   -6.3326   -0.7898 C   0  0  0  0  0  0  0  0  0  0  0  0
   -5.2799   -7.2452   -1.0011 C   0  0  0  0  0  0  0  0  0  0  0  0
   -4.7540   -8.5958   -0.7097 C   0  0  0  0  0  0  0  0  0  0  0  0
   -5.3892   -9.6270   -0.8052 O   0  0  0  0  0  0  0  0  0  0  0  0
   -3.4677   -8.5141   -0.3236 N   0  0  0  0  0  0  0  0  0  0  0  0
   -3.0783   -7.0993   -0.3472 C   0  0  1  0  0  0  0  0  0  0  0  0
   -2.7760   -6.7794    0.6499 H   0  0  0  0  0  0  0  0  0  0  0  0
   -1.9515   -6.8852   -1.3247 C   0  0  0  0  0  0  0  0  0  0  0  0
   -1.9528   -7.5493   -2.5371 C   0  0  0  0  0  0  0  0  0  0  0  0
   -0.9192   -7.3529   -3.4338 C   0  0  0  0  0  0  0  0  0  0  0  0
    0.1154   -6.4922   -3.1182 C   0  0  0  0  0  0  0  0  0  0  0  0
    0.1162   -5.8274   -1.9062 C   0  0  0  0  0  0  0  0  0  0  0  0
   -0.9196   -6.0205   -1.0113 C   0  0  0  0  0  0  0  0  0  0  0  0
    1.2428   -6.2789   -4.0953 C   0  0  0  0  0  0  0  0  0  0  0  0
    1.3627   -4.7881   -4.4181 C   0  0  0  0  0  0  0  0  0  0  0  0
    2.5525   -6.7742   -3.4789 C   0  0  0  0  0  0  0  0  0  0  0  0
   -2.6066   -9.6391    0.0494 C   0  0  0  0  0  0  0  0  0  0  0  0
   -2.7501   -9.9164    1.5472 C   0  0  0  0  0  0  0  0  0  0  0  0
   -4.0792  -10.3625    1.8239 O   0  0  0  0  0  0  0  0  0  0  0  0
   -4.3530  -10.5465    3.2143 C   0  0  0  0  0  0  0  0  0  0  0  0
   -5.7545  -11.1363    3.3845 C   0  0  0  0  0  0  0  0  0  0  0  0
   -5.7909  -12.4484    2.8196 O   0  0  0  0  0  0  0  0  0  0  0  0
   -6.5378   -6.9658   -1.4126 O   0  5  0  0  0  0  0  0  0  0  0  0
   -3.9842    2.4624    2.6765 H   0  0  0  0  0  0  0  0  0  0  0  0
   -3.2083    2.0558    1.1270 H   0  0  0  0  0  0  0  0  0  0  0  0
   -4.9835    2.1016    1.2485 H   0  0  0  0  0  0  0  0  0  0  0  0
   -3.1515    0.1267    2.6839 H   0  0  0  0  0  0  0  0  0  0  0  0
   -4.9268    0.1725    2.8053 H   0  0  0  0  0  0  0  0  0  0  0  0
   -4.0599   -1.6660    3.2756 H   0  0  0  0  0  0  0  0  0  0  0  0
   -4.1008   -4.1051    3.5853 H   0  0  0  0  0  0  0  0  0  0  0  0
   -4.2613   -5.5959    1.6371 H   0  0  0  0  0  0  0  0  0  0  0  0
   -4.3523   -2.1797   -0.9553 H   0  0  0  0  0  0  0  0  0  0  0  0
   -2.7611   -8.2218   -2.7837 H   0  0  0  0  0  0  0  0  0  0  0  0
   -0.9198   -7.8723   -4.3807 H   0  0  0  0  0  0  0  0  0  0  0  0
    0.9247   -5.1552   -1.6595 H   0  0  0  0  0  0  0  0  0  0  0  0
   -0.9209   -5.4983   -0.0660 H   0  0  0  0  0  0  0  0  0  0  0  0
    1.0396   -6.8338   -5.0113 H   0  0  0  0  0  0  0  0  0  0  0  0
    1.5659   -4.2333   -3.5022 H   0  0  0  0  0  0  0  0  0  0  0  0
    2.1780   -4.6339   -5.1249 H   0  0  0  0  0  0  0  0  0  0  0  0
    0.4295   -4.4353   -4.8573 H   0  0  0  0  0  0  0  0  0  0  0  0
    2.4943   -7.8507   -3.3184 H   0  0  0  0  0  0  0  0  0  0  0  0
    3.3789   -6.5517   -4.1540 H   0  0  0  0  0  0  0  0  0  0  0  0
    2.7176   -6.2730   -2.5251 H   0  0  0  0  0  0  0  0  0  0  0  0
   -2.9012  -10.5245   -0.5139 H   0  0  0  0  0  0  0  0  0  0  0  0
   -1.5691   -9.3931   -0.1768 H   0  0  0  0  0  0  0  0  0  0  0  0
   -2.0390  -10.6874    1.8438 H   0  0  0  0  0  0  0  0  0  0  0  0
   -2.5497   -9.0027    2.1068 H   0  0  0  0  0  0  0  0  0  0  0  0
   -3.6176  -11.2279    3.6423 H   0  0  0  0  0  0  0  0  0  0  0  0
   -4.2987   -9.5855    3.7256 H   0  0  0  0  0  0  0  0  0  0  0  0
   -5.9995  -11.1905    4.4452 H   0  0  0  0  0  0  0  0  0  0  0  0
   -6.4800  -10.5015    2.8759 H   0  0  0  0  0  0  0  0  0  0  0  0
   -6.6688  -12.8540    2.8233 H   0  0  0  0  0  0  0  0  0  0  0  0
  1  2  1  0  0  0  0
  1 35  1  0  0  0  0
  1 36  1  0  0  0  0
  1 37  1  0  0  0  0
  2  3  1  0  0  0  0
  2 38  1  0  0  0  0
  2 39  1  0  0  0  0
  3  4  1  0  0  0  0
  4  9  2  0  0  0  0
  4  5  1  0  0  0  0
  5  6  2  0  0  0  0
  5 40  1  0  0  0  0
  6  7  1  0  0  0  0
  6 41  1  0  0  0  0
  7  8  2  0  0  0  0
  7 42  1  0  0  0  0
  8  9  1  0  0  0  0
  8 10  1  0  0  0  0
  9 43  1  0  0  0  0
 10 11  2  0  0  0  0
 10 12  1  0  0  0  0
 12 17  1  0  0  0  0
 12 13  2  0  0  0  0
 13 14  1  0  0  0  0
 13 34  1  0  0  0  0
 14 15  2  0  0  0  0
 14 16  1  0  0  0  0
 16 17  1  0  0  0  0
 16 28  1  0  0  0  0
 17 18  1  1  0  0  0
 17 19  1  0  0  0  0
 19 24  2  0  0  0  0
 19 20  1  0  0  0  0
 20 21  2  0  0  0  0
 20 44  1  0  0  0  0
 21 22  1  0  0  0  0
 21 45  1  0  0  0  0
 22 23  2  0  0  0  0
 22 25  1  0  0  0  0
 23 24  1  0  0  0  0
 23 46  1  0  0  0  0
 24 47  1  0  0  0  0
 25 26  1  0  0  0  0
 25 27  1  0  0  0  0
 25 48  1  0  0  0  0
 26 49  1  0  0  0  0
 26 50  1  0  0  0  0
 26 51  1  0  0  0  0
 27 52  1  0  0  0  0
 27 53  1  0  0  0  0
 27 54  1  0  0  0  0
 28 29  1  0  0  0  0
 28 55  1  0  0  0  0
 28 56  1  0  0  0  0
 29 30  1  0  0  0  0
 29 57  1  0  0  0  0
 29 58  1  0  0  0  0
 30 31  1  0  0  0  0
 31 32  1  0  0  0  0
 31 59  1  0  0  0  0
 31 60  1  0  0  0  0
 32 33  1  0  0  0  0
 32 61  1  0  0  0  0
 32 62  1  0  0  0  0
 33 63  1  0  0  0  0
M  CHG  1  34  -1
M  END
$$$$
ZINC38792856
 OpenBabel01252620473D

 59 62  0  0  1  0  0  0  0  0999 V2000
    1.8629    0.8504   -2.1322 C   0  0  0  0  0  0  0  0  0  0  0  0
    1.4223   -0.4528   -1.5170 C   0  0  0  0  0  0  0  0  0  0  0  0
    1.0441   -1.5068   -2.3275 C   0  0  0  0  0  0  0  0  0  0  0  0
    0.6400   -2.7023   -1.7632 C   0  0  0  0  0  0  0  0  0  0  0  0
    0.6144   -2.8438   -0.3883 C   0  0  0  0  0  0  0  0  0  0  0  0
    0.9934   -1.7901    0.4222 C   0  0  0  0  0  0  0  0  0  0  0  0
    1.4017   -0.5961   -0.1422 C   0  0  0  0  0  0  0  0  0  0  0  0
    0.1728   -4.1467    0.2269 C   0  0  2  0  0  0  0  0  0  0  0  0
    0.2556   -4.9439   -0.5119 H   0  0  0  0  0  0  0  0  0  0  0  0
   -1.2815   -4.0266    0.6867 C   0  0  0  0  0  0  0  0  0  0  0  0
   -1.6858   -5.2672    1.3616 N   0  0  0  0  0  0  0  0  0  0  0  0
   -1.8211   -6.3704    0.3994 C   0  0  0  0  0  0  0  0  0  0  0  0
   -2.1842   -7.6540    1.1506 C   0  0  0  0  0  0  0  0  0  0  0  0
   -3.3832   -7.4390    1.8998 O   0  0  0  0  0  0  0  0  0  0  0  0
   -3.2866   -6.3719    2.8471 C   0  0  0  0  0  0  0  0  0  0  0  0
   -2.9347   -5.0753    2.1130 C   0  0  0  0  0  0  0  0  0  0  0  0
    1.0247   -4.4569    1.3776 N   0  0  0  0  0  0  0  0  0  0  0  0
    1.7722   -5.5784    1.3798 C   0  0  0  0  0  0  0  0  0  0  0  0
    1.6730   -6.3781    0.4668 O   0  0  0  0  0  0  0  0  0  0  0  0
    2.6719   -5.8265    2.4426 C   0  0  0  0  0  0  0  0  0  0  0  0
    4.8635   -7.4974    3.9912 H   0  0  0  0  0  0  0  0  0  0  0  0
    3.4816   -6.8942    2.5747 C   0  0  0  0  0  0  0  0  0  0  0  0
    4.2206   -6.8266    3.7126 N   0  0  0  0  0  0  0  0  0  0  0  0
    3.9297   -5.6593    4.4301 N   0  0  0  0  0  0  0  0  0  0  0  0
    2.9129   -4.9394    3.6449 C   0  0  2  0  0  0  0  0  0  0  0  0
    3.2896   -3.9659    3.3309 H   0  0  0  0  0  0  0  0  0  0  0  0
    1.6270   -4.7799    4.4584 C   0  0  0  0  0  0  0  0  0  0  0  0
    4.4931   -5.2575    5.6404 C   0  0  0  0  0  0  0  0  0  0  0  0
    5.4697   -6.0628    6.2590 C   0  0  0  0  0  0  0  0  0  0  0  0
    6.0186   -5.6702    7.4392 C   0  0  0  0  0  0  0  0  0  0  0  0
    5.5992   -4.4587    8.0262 C   0  0  0  0  0  0  0  0  0  0  0  0
    6.0812   -4.0898    9.0856 O   0  0  0  0  0  0  0  0  0  0  0  0
    4.6627   -3.7103    7.4095 N   0  0  0  0  0  0  0  0  0  0  0  0
    4.3705   -2.8760    7.8090 H   0  0  0  0  0  0  0  0  0  0  0  0
    4.1143   -4.1303    6.1922 N   0  0  0  0  0  0  0  0  0  0  0  0
    2.9395    0.8268   -2.3012 H   0  0  0  0  0  0  0  0  0  0  0  0
    1.3491    0.9957   -3.0825 H   0  0  0  0  0  0  0  0  0  0  0  0
    1.6189    1.6714   -1.4580 H   0  0  0  0  0  0  0  0  0  0  0  0
    1.0641   -1.3962   -3.4016 H   0  0  0  0  0  0  0  0  0  0  0  0
    0.3438   -3.5255   -2.3964 H   0  0  0  0  0  0  0  0  0  0  0  0
    0.9731   -1.9006    1.4963 H   0  0  0  0  0  0  0  0  0  0  0  0
    1.7014    0.2259    0.4909 H   0  0  0  0  0  0  0  0  0  0  0  0
   -1.3760   -3.1894    1.3782 H   0  0  0  0  0  0  0  0  0  0  0  0
   -1.9232   -3.8577   -0.1781 H   0  0  0  0  0  0  0  0  0  0  0  0
   -2.6071   -6.1336   -0.3177 H   0  0  0  0  0  0  0  0  0  0  0  0
   -0.8774   -6.5116   -0.1275 H   0  0  0  0  0  0  0  0  0  0  0  0
   -2.3415   -8.4619    0.4360 H   0  0  0  0  0  0  0  0  0  0  0  0
   -1.3738   -7.9202    1.8293 H   0  0  0  0  0  0  0  0  0  0  0  0
   -4.2413   -6.2524    3.3595 H   0  0  0  0  0  0  0  0  0  0  0  0
   -2.5083   -6.6008    3.5751 H   0  0  0  0  0  0  0  0  0  0  0  0
   -2.8039   -4.2711    2.8371 H   0  0  0  0  0  0  0  0  0  0  0  0
   -3.7385   -4.8178    1.4234 H   0  0  0  0  0  0  0  0  0  0  0  0
    1.0508   -3.8552    2.1380 H   0  0  0  0  0  0  0  0  0  0  0  0
    3.5365   -7.7050    1.8635 H   0  0  0  0  0  0  0  0  0  0  0  0
    1.2765   -5.7607    4.7799 H   0  0  0  0  0  0  0  0  0  0  0  0
    1.8249   -4.1602    5.3330 H   0  0  0  0  0  0  0  0  0  0  0  0
    0.8636   -4.3053    3.8420 H   0  0  0  0  0  0  0  0  0  0  0  0
    5.7808   -6.9884    5.7977 H   0  0  0  0  0  0  0  0  0  0  0  0
    6.7677   -6.2800    7.9223 H   0  0  0  0  0  0  0  0  0  0  0  0
  1  2  1  0  0  0  0
  1 36  1  0  0  0  0
  1 37  1  0  0  0  0
  1 38  1  0  0  0  0
  2  7  2  0  0  0  0
  2  3  1  0  0  0  0
  3  4  2  0  0  0  0
  3 39  1  0  0  0  0
  4  5  1  0  0  0  0
  4 40  1  0  0  0  0
  5  6  2  0  0  0  0
  5  8  1  0  0  0  0
  6  7  1  0  0  0  0
  6 41  1  0  0  0  0
  7 42  1  0  0  0  0
  8  9  1  6  0  0  0
  8 10  1  0  0  0  0
  8 17  1  0  0  0  0
 10 11  1  0  0  0  0
 10 43  1  0  0  0  0
 10 44  1  0  0  0  0
 11 16  1  0  0  0  0
 11 12  1  0  0  0  0
 12 13  1  0  0  0  0
 12 45  1  0  0  0  0
 12 46  1  0  0  0  0
 13 14  1  0  0  0  0
 13 47  1  0  0  0  0
 13 48  1  0  0  0  0
 14 15  1  0  0  0  0
 15 16  1  0  0  0  0
 15 49  1  0  0  0  0
 15 50  1  0  0  0  0
 16 51  1  0  0  0  0
 16 52  1  0  0  0  0
 17 53  1  0  0  0  0
 17 18  1  0  0  0  0
 18 19  2  0  0  0  0
 18 20  1  0  0  0  0
 20 25  1  0  0  0  0
 20 22  2  0  0  0  0
 21 23  1  0  0  0  0
 22 54  1  0  0  0  0
 22 23  1  0  0  0  0
 23 24  1  0  0  0  0
 24 25  1  0  0  0  0
 24 28  1  0  0  0  0
 25 26  1  6  0  0  0
 25 27  1  0  0  0  0
 27 55  1  0  0  0  0
 27 56  1  0  0  0  0
 27 57  1  0  0  0  0
 28 35  2  0  0  0  0
 28 29  1  0  0  0  0
 29 30  2  0  0  0  0
 29 58  1  0  0  0  0
 30 31  1  0  0  0  0
 30 59  1  0  0  0  0
 31 32  2  0  0  0  0
 31 33  1  0  0  0  0
 33 34  1  0  0  0  0
 33 35  1  0  0  0  0
M  END
$$$$
ZINC02441178
 OpenBabel01252620473D

 40 43  0  0  1  0  0  0  0  0999 V2000
   -0.0164    1.3550    0.0095 C   0  0  0  0  0  0  0  0  0  0  0  0
    1.1547    2.1008    0.0023 C   0  0  0  0  0  0  0  0  0  0  0  0
    2.3736    1.4485   -0.0128 C   0  0  0  0  0  0  0  0  0  0  0  0
    2.4045    0.0756   -0.0204 C   0  0  0  0  0  0  0  0  0  0  0  0
    1.2282   -0.7132   -0.0134 C   0  0  0  0  0  0  0  0  0  0  0  0
    0.0021   -0.0041    0.0020 C   0  0  0  0  0  0  0  0  0  0  0  0
    1.4161   -2.0401   -0.0223 N   0  0  0  0  0  0  0  0  0  0  0  0
    2.6157   -2.5878   -0.0366 C   0  0  0  0  0  0  0  0  0  0  0  0
    3.6853   -1.1555   -0.0392 S   0  0  0  0  0  0  0  0  0  0  0  0
    2.9798   -4.0109   -0.0470 C   0  0  0  0  0  0  0  0  0  0  0  0
    4.2635   -4.5138   -0.0564 C   0  0  0  0  0  0  0  0  0  0  0  0
    4.1558   -5.9058   -0.0637 C   0  0  0  0  0  0  0  0  0  0  0  0
    2.8044   -6.2035   -0.0585 C   0  0  0  0  0  0  0  0  0  0  0  0
    2.1159   -5.0442   -0.0430 O   0  0  0  0  0  0  0  0  0  0  0  0
    2.2425   -7.4997   -0.0629 C   0  0  0  0  0  0  0  0  0  0  0  0
    0.8874   -7.6557   -0.0569 C   0  0  0  0  0  0  0  0  0  0  0  0
    0.0837   -8.8917   -0.0536 C   0  0  0  0  0  0  0  0  0  0  0  0
    0.6042   -9.9924   -0.0566 O   0  0  0  0  0  0  0  0  0  0  0  0
   -1.2305   -8.7455   -0.0469 N   0  0  0  0  0  0  0  0  0  0  0  0
   -1.8032   -7.5244   -0.0437 C   0  0  0  0  0  0  0  0  0  0  0  0
   -3.4693   -7.1310   -0.0357 S   0  0  0  0  0  0  0  0  0  0  0  0
   -0.4020   -6.4176   -0.0427 S   0  0  0  0  0  0  0  0  0  0  0  0
   -2.0836   -9.9365   -0.0434 C   0  0  2  0  0  0  0  0  0  0  0  0
   -1.4597  -10.8303   -0.0472 H   0  0  0  0  0  0  0  0  0  0  0  0
   -2.9732   -9.9303   -1.2882 C   0  0  0  0  0  0  0  0  0  0  0  0
   -2.1144  -10.0586   -2.5200 C   0  0  0  0  0  0  0  0  0  0  0  0
   -0.9032  -10.1468   -2.4122 O   0  0  0  0  0  0  0  0  0  0  0  0
   -2.6310  -10.0742   -3.6243 O   0  0  0  0  0  1  0  0  0  0  0  0
   -2.9474   -9.9320    1.1914 C   0  0  0  0  0  0  0  0  0  0  0  0
   -3.2904   -8.8744    1.6916 O   0  0  0  0  0  0  0  0  0  0  0  0
   -3.3033  -10.9861    1.6902 O   0  0  0  0  0  1  0  0  0  0  0  0
   -0.9666    1.8681    0.0259 H   0  0  0  0  0  0  0  0  0  0  0  0
    1.1139    3.1800    0.0081 H   0  0  0  0  0  0  0  0  0  0  0  0
    3.2937    2.0140   -0.0189 H   0  0  0  0  0  0  0  0  0  0  0  0
   -0.9297   -0.5501    0.0079 H   0  0  0  0  0  0  0  0  0  0  0  0
    5.1785   -3.9401   -0.0578 H   0  0  0  0  0  0  0  0  0  0  0  0
    4.9708   -6.6143   -0.0719 H   0  0  0  0  0  0  0  0  0  0  0  0
    2.8858   -8.3671   -0.0711 H   0  0  0  0  0  0  0  0  0  0  0  0
   -3.6691  -10.7680   -1.2416 H   0  0  0  0  0  0  0  0  0  0  0  0
   -3.5321   -8.9955   -1.3307 H   0  0  0  0  0  0  0  0  0  0  0  0
  1  6  2  0  0  0  0
  1  2  1  0  0  0  0
  1 32  1  0  0  0  0
  2  3  2  0  0  0  0
  2 33  1  0  0  0  0
  3  4  1  0  0  0  0
  3 34  1  0  0  0  0
  4  9  1  0  0  0  0
  4  5  2  0  0  0  0
  5  6  1  0  0  0  0
  5  7  1  0  0  0  0
  6 35  1  0  0  0  0
  7  8  2  0  0  0  0
  8  9  1  0  0  0  0
  8 10  1  0  0  0  0
 10 14  1  0  0  0  0
 10 11  2  0  0  0  0
 11 12  1  0  0  0  0
 11 36  1  0  0  0  0
 12 13  2  0  0  0  0
 12 37  1  0  0  0  0
 13 14  1  0  0  0  0
 13 15  1  0  0  0  0
 15 16  2  0  0  0  0
 15 38  1  0  0  0  0
 16 22  1  0  0  0  0
 16 17  1  0  0  0  0
 17 18  2  0  0  0  0
 17 19  1  0  0  0  0
 19 20  1  0  0  0  0
 19 23  1  0  0  0  0
 20 21  2  0  0  0  0
 20 22  1  0  0  0  0
 23 24  1  6  0  0  0
 23 25  1  0  0  0  0
 23 29  1  0  0  0  0
 25 26  1  0  0  0  0
 25 39  1  0  0  0  0
 25 40  1  0  0  0  0
 26 27  2  0  0  0  0
 26 28  1  0  0  0  0
 29 30  2  0  0  0  0
 29 31  1  0  0  0  0
M  END
$$$$
ZINC57833413
 OpenBabel01252620473D

 23 23  0  0  0  0  0  0  0  0999 V2000
   -0.0187    1.5258    0.0104 C   0  0  0  0  0  0  0  0  0  0  0  0
    0.0021   -0.0041    0.0020 C   0  0  0  0  0  0  0  0  0  0  0  0
    0.7421   -0.5109    1.2415 C   0  0  0  0  0  0  0  0  0  0  0  0
   -1.4117   -0.5257    0.0127 C   0  0  0  0  0  0  0  0  0  0  0  0
   -1.8097   -1.2271   -0.9017 O   0  0  0  0  0  0  0  0  0  0  0  0
   -2.1576   -0.2463    0.9358 O   0  0  0  0  0  1  0  0  0  0  0  0
    0.6878   -0.4765   -1.2033 N   0  0  0  0  0  0  0  0  0  0  0  0
    1.1855    0.4249   -2.0898 C   0  0  0  0  0  0  0  0  0  0  0  0
    1.8231    0.0124   -3.2108 C   0  0  0  0  0  0  0  0  0  0  0  0
    1.9749   -1.3587   -3.4658 C   0  0  0  0  0  0  0  0  0  0  0  0
    1.4744   -2.2623   -2.5742 C   0  0  0  0  0  0  0  0  0  0  0  0
    0.8225   -1.7992   -1.4173 C   0  0  0  0  0  0  0  0  0  0  0  0
    0.3746   -2.5967   -0.6087 O   0  0  0  0  0  0  0  0  0  0  0  0
    1.6463   -3.9656   -2.8617 Cl  0  0  0  0  0  0  0  0  0  0  0  0
    2.4517    1.1793   -4.3320 Cl  0  0  0  0  0  0  0  0  0  0  0  0
    1.0039    1.9031    0.0027 H   0  0  0  0  0  0  0  0  0  0  0  0
   -0.5459    1.8868   -0.8726 H   0  0  0  0  0  0  0  0  0  0  0  0
   -0.5289    1.8773    0.9072 H   0  0  0  0  0  0  0  0  0  0  0  0
    0.2319   -0.1594    2.1383 H   0  0  0  0  0  0  0  0  0  0  0  0
    0.7568   -1.6008    1.2356 H   0  0  0  0  0  0  0  0  0  0  0  0
    1.7647   -0.1336    1.2338 H   0  0  0  0  0  0  0  0  0  0  0  0
    1.0710    1.4816   -1.8984 H   0  0  0  0  0  0  0  0  0  0  0  0
    2.4820   -1.6953   -4.3579 H   0  0  0  0  0  0  0  0  0  0  0  0
  1  2  1  0  0  0  0
  1 16  1  0  0  0  0
  1 17  1  0  0  0  0
  1 18  1  0  0  0  0
  2  3  1  0  0  0  0
  2  4  1  0  0  0  0
  2  7  1  0  0  0  0
  3 19  1  0  0  0  0
  3 20  1  0  0  0  0
  3 21  1  0  0  0  0
  4  5  2  0  0  0  0
  4  6  1  0  0  0  0
  7 12  1  0  0  0  0
  7  8  1  0  0  0  0
  8  9  2  0  0  0  0
  8 22  1  0  0  0  0
  9 10  1  0  0  0  0
  9 15  1  0  0  0  0
 10 11  2  0  0  0  0
 10 23  1  0  0  0  0
 11 12  1  0  0  0  0
 11 14  1  0  0  0  0
 12 13  2  0  0  0  0
M  END
$$$$
ZINC09306777
 OpenBabel01252620473D

 35 37  0  0  1  0  0  0  0  0999 V2000
   -0.0164    1.3777    0.0312 C   0  0  0  0  0  0  0  0  0  0  0  0
    1.1694    2.0866    0.0237 C   0  0  0  0  0  0  0  0  0  0  0  0
    2.3815    1.4107   -0.0131 C   0  0  0  0  0  0  0  0  0  0  0  0
    2.3993    0.0230   -0.0424 C   0  0  0  0  0  0  0  0  0  0  0  0
    1.2094   -0.6823   -0.0347 C   0  0  0  0  0  0  0  0  0  0  0  0
    0.0021   -0.0041    0.0021 C   0  0  0  0  0  0  0  0  0  0  0  0
    1.2247   -2.0329   -0.0631 F   0  0  0  0  0  0  0  0  0  0  0  0
    3.5853    2.1284   -0.0212 N   0  0  0  0  0  0  0  0  0  0  0  0
    4.8124    1.5712    0.0554 C   0  0  0  0  0  0  0  0  0  0  0  0
    5.0834    0.3925    0.1415 O   0  0  0  0  0  0  0  0  0  0  0  0
    5.7783    2.7388    0.0099 C   0  0  2  0  0  0  0  0  0  0  0  0
    4.9035    3.9173   -0.0962 N   0  0  0  0  0  0  0  0  0  0  0  0
    3.6798    3.4956   -0.1142 C   0  0  0  0  0  0  0  0  0  0  0  0
    2.6090    4.3136   -0.2095 O   0  0  0  0  0  0  0  0  0  0  0  0
    6.6894    2.6345   -1.2148 C   0  0  0  0  0  0  0  0  0  0  0  0
    5.9110    2.6438   -2.3772 F   0  0  0  0  0  0  0  0  0  0  0  0
    7.5702    3.7212   -1.2347 F   0  0  0  0  0  0  0  0  0  0  0  0
    7.4201    1.4431   -1.1524 F   0  0  0  0  0  0  0  0  0  0  0  0
    6.5725    2.7972    1.2396 N   0  0  0  0  0  0  0  0  0  0  0  0
    7.3584    1.7579    1.5842 C   0  0  0  0  0  0  0  0  0  0  0  0
    7.4083    0.7710    0.8738 O   0  0  0  0  0  0  0  0  0  0  0  0
    8.1530    1.8163    2.8146 C   0  0  0  0  0  0  0  0  0  0  0  0
    9.0190    0.8702    3.3414 C   0  0  0  0  0  0  0  0  0  0  0  0
    9.6285    1.2122    4.5247 C   0  0  0  0  0  0  0  0  0  0  0  0
    9.3526    2.4160    5.0844 C   0  0  0  0  0  0  0  0  0  0  0  0
    8.2640    3.1254    4.0195 S   0  0  0  0  0  0  0  0  0  0  0  0
   -0.9590    1.9039    0.0643 H   0  0  0  0  0  0  0  0  0  0  0  0
    1.1534    3.1662    0.0461 H   0  0  0  0  0  0  0  0  0  0  0  0
    3.3408   -0.5053   -0.0714 H   0  0  0  0  0  0  0  0  0  0  0  0
   -0.9263   -0.5559    0.0084 H   0  0  0  0  0  0  0  0  0  0  0  0
    2.8349    5.2521   -0.2677 H   0  0  0  0  0  0  0  0  0  0  0  0
    6.5327    3.5838    1.8058 H   0  0  0  0  0  0  0  0  0  0  0  0
    9.2025   -0.0755    2.8531 H   0  0  0  0  0  0  0  0  0  0  0  0
   10.3174    0.5313    5.0025 H   0  0  0  0  0  0  0  0  0  0  0  0
    9.7465    2.8270    6.0022 H   0  0  0  0  0  0  0  0  0  0  0  0
  1  6  2  0  0  0  0
  1  2  1  0  0  0  0
  1 27  1  0  0  0  0
  2  3  2  0  0  0  0
  2 28  1  0  0  0  0
  3  4  1  0  0  0  0
  3  8  1  0  0  0  0
  4  5  2  0  0  0  0
  4 29  1  0  0  0  0
  5  6  1  0  0  0  0
  5  7  1  0  0  0  0
  6 30  1  0  0  0  0
  8 13  1  0  0  0  0
  8  9  1  0  0  0  0
  9 10  2  0  0  0  0
  9 11  1  0  0  0  0
 11 12  1  0  0  0  0
 11 15  1  6  0  0  0
 11 19  1  0  0  0  0
 12 13  2  0  0  0  0
 13 14  1  0  0  0  0
 14 31  1  0  0  0  0
 15 16  1  0  0  0  0
 15 17  1  0  0  0  0
 15 18  1  0  0  0  0
 19 20  1  0  0  0  0
 19 32  1  0  0  0  0
 20 21  2  0  0  0  0
 20 22  1  0  0  0  0
 22 26  1  0  0  0  0
 22 23  2  0  0  0  0
 23 24  1  0  0  0  0
 23 33  1  0  0  0  0
 24 25  2  0  0  0  0
 24 34  1  0  0  0  0
 25 26  1  0  0  0  0
 25 35  1  0  0  0  0
M  END
$$$$
ZINC63099878
 OpenBabel01252620473D

 28 28  0  0  0  0  0  0  0  0999 V2000
   -0.0169    1.3936    0.0097 C   0  0  0  0  0  0  0  0  0  0  0  0
    1.1699    2.0963    0.0021 C   0  0  0  0  0  0  0  0  0  0  0  0
    2.3797    1.4215   -0.0135 C   0  0  0  0  0  0  0  0  0  0  0  0
    2.4089    0.0395   -0.0212 C   0  0  0  0  0  0  0  0  0  0  0  0
    1.2282   -0.6799   -0.0138 C   0  0  0  0  0  0  0  0  0  0  0  0
    0.0021   -0.0041    0.0020 C   0  0  0  0  0  0  0  0  0  0  0  0
   -1.2615   -0.7621    0.0105 C   0  0  0  0  0  0  0  0  0  0  0  0
   -2.3308   -0.1683    0.0243 O   0  0  0  0  0  0  0  0  0  0  0  0
   -1.2412   -1.9850    0.0037 O   0  0  0  0  0  1  0  0  0  0  0  0
    1.2574   -2.0306   -0.0222 F   0  0  0  0  0  0  0  0  0  0  0  0
    3.9541   -0.8071   -0.0411 S   0  0  0  0  0  0  0  0  0  0  0  0
    3.8696   -1.7824   -1.0711 O   0  0  0  0  0  0  0  0  0  0  0  0
    4.9646    0.1916   -0.0187 O   0  0  0  0  0  0  0  0  0  0  0  0
    4.0764   -1.6364    1.3871 N   0  0  0  0  0  0  0  0  0  0  0  0
    3.1450   -2.7279    1.6824 C   0  0  0  0  0  0  0  0  0  0  0  0
    3.6846   -3.5570    2.8496 C   0  0  0  0  0  0  0  0  0  0  0  0
    2.7119   -4.6970    3.1581 C   0  0  0  0  0  0  0  0  0  0  0  0
    2.5769   -5.5129    2.0297 F   0  0  0  0  0  0  0  0  0  0  0  0
    3.2053   -5.4551    4.2253 F   0  0  0  0  0  0  0  0  0  0  0  0
    1.4642   -4.1654    3.5012 F   0  0  0  0  0  0  0  0  0  0  0  0
    1.1455    3.9872    0.0125 Br  0  0  0  0  0  0  0  0  0  0  0  0
   -0.9587    1.9219    0.0260 H   0  0  0  0  0  0  0  0  0  0  0  0
    3.3051    1.9783   -0.0201 H   0  0  0  0  0  0  0  0  0  0  0  0
    4.7648   -1.3994    2.0281 H   0  0  0  0  0  0  0  0  0  0  0  0
    2.1729   -2.3137    1.9498 H   0  0  0  0  0  0  0  0  0  0  0  0
    3.0398   -3.3636    0.8033 H   0  0  0  0  0  0  0  0  0  0  0  0
    4.6568   -3.9712    2.5823 H   0  0  0  0  0  0  0  0  0  0  0  0
    3.7899   -2.9213    3.7288 H   0  0  0  0  0  0  0  0  0  0  0  0
  1  6  2  0  0  0  0
  1  2  1  0  0  0  0
  1 22  1  0  0  0  0
  2  3  2  0  0  0  0
  2 21  1  0  0  0  0
  3  4  1  0  0  0  0
  3 23  1  0  0  0  0
  4  5  2  0  0  0  0
  4 11  1  0  0  0  0
  5  6  1  0  0  0  0
  5 10  1  0  0  0  0
  6  7  1  0  0  0  0
  7  8  2  0  0  0  0
  7  9  1  0  0  0  0
 11 12  2  0  0  0  0
 11 13  2  0  0  0  0
 11 14  1  0  0  0  0
 14 15  1  0  0  0  0
 14 24  1  0  0  0  0
 15 16  1  0  0  0  0
 15 25  1  0  0  0  0
 15 26  1  0  0  0  0
 16 17  1  0  0  0  0
 16 27  1  0  0  0  0
 16 28  1  0  0  0  0
 17 18  1  0  0  0  0
 17 19  1  0  0  0  0
 17 20  1  0  0  0  0
M  END
$$$$
ZINC27533454
 OpenBabel01252620473D

 33 34  0  0  0  0  0  0  0  0999 V2000
    6.6315    5.7955   -6.9717 C   0  0  0  0  0  0  0  0  0  0  0  0
    5.9629    5.0365   -5.8545 C   0  0  0  0  0  0  0  0  0  0  0  0
    4.9584    4.1282   -6.1416 C   0  0  0  0  0  0  0  0  0  0  0  0
    4.3384    3.4257   -5.1231 C   0  0  0  0  0  0  0  0  0  0  0  0
    4.7210    3.6219   -3.8130 C   0  0  0  0  0  0  0  0  0  0  0  0
    5.7317    4.5420   -3.5138 C   0  0  0  0  0  0  0  0  0  0  0  0
    6.3536    5.2482   -4.5497 C   0  0  0  0  0  0  0  0  0  0  0  0
    6.1424    4.7612   -2.1194 C   0  0  0  0  0  0  0  0  0  0  0  0
    5.2117    4.7787   -1.1332 C   0  0  0  0  0  0  0  0  0  0  0  0
    3.7363    4.7681   -1.2292 C   0  0  0  0  0  0  0  0  0  0  0  0
    3.1653    4.7404   -2.3033 O   0  0  0  0  0  0  0  0  0  0  0  0
    3.0691    4.7907   -0.0876 N   0  0  0  0  0  0  0  0  0  0  0  0
    3.7060    4.8272    1.1005 C   0  0  0  0  0  0  0  0  0  0  0  0
    3.0249    4.8678    2.6706 S   0  0  0  0  0  0  0  0  0  0  0  0
    5.4313    4.8209    0.6404 S   0  0  0  0  0  0  0  0  0  0  0  0
    1.6044    4.7817   -0.1144 C   0  0  0  0  0  0  0  0  0  0  0  0
    1.1027    3.3365   -0.0904 C   0  0  0  0  0  0  0  0  0  0  0  0
   -0.7110    3.3255   -0.1236 S   0  0  0  0  0  0  0  0  0  0  0  0
   -1.1804    3.7993   -1.3783 O   0  0  0  0  0  0  0  0  0  0  0  0
   -1.2259    3.8560    1.0899 O   0  0  0  0  0  0  0  0  0  0  0  0
   -1.0937    1.8526   -0.0968 O   0  0  0  0  0  1  0  0  0  0  0  0
    6.1904    5.4959   -7.9338 H   0  0  0  0  0  0  0  0  0  0  0  0
    7.7080    5.5694   -6.9757 H   0  0  0  0  0  0  0  0  0  0  0  0
    6.4841    6.8751   -6.8210 H   0  0  0  0  0  0  0  0  0  0  0  0
    4.6567    3.9671   -7.1661 H   0  0  0  0  0  0  0  0  0  0  0  0
    3.5558    2.7186   -5.3554 H   0  0  0  0  0  0  0  0  0  0  0  0
    4.2390    3.0699   -3.0196 H   0  0  0  0  0  0  0  0  0  0  0  0
    7.1376    5.9569   -4.3274 H   0  0  0  0  0  0  0  0  0  0  0  0
    7.2046    4.9110   -1.8759 H   0  0  0  0  0  0  0  0  0  0  0  0
    1.2183    5.3185    0.7647 H   0  0  0  0  0  0  0  0  0  0  0  0
    1.2514    5.2772   -1.0308 H   0  0  0  0  0  0  0  0  0  0  0  0
    1.4888    2.7997   -0.9695 H   0  0  0  0  0  0  0  0  0  0  0  0
    1.4557    2.8410    0.8260 H   0  0  0  0  0  0  0  0  0  0  0  0
  1  2  1  0  0  0  0
  1 22  1  0  0  0  0
  1 23  1  0  0  0  0
  1 24  1  0  0  0  0
  2  7  2  0  0  0  0
  2  3  1  0  0  0  0
  3  4  2  0  0  0  0
  3 25  1  0  0  0  0
  4  5  1  0  0  0  0
  4 26  1  0  0  0  0
  5  6  2  0  0  0  0
  5 27  1  0  0  0  0
  6  7  1  0  0  0  0
  6  8  1  0  0  0  0
  7 28  1  0  0  0  0
  8  9  2  0  0  0  0
  8 29  1  0  0  0  0
  9 15  1  0  0  0  0
  9 10  1  0  0  0  0
 10 11  2  0  0  0  0
 10 12  1  0  0  0  0
 12 13  1  0  0  0  0
 12 16  1  0  0  0  0
 13 14  2  0  0  0  0
 13 15  1  0  0  0  0
 16 17  1  0  0  0  0
 16 30  1  0  0  0  0
 16 31  1  0  0  0  0
 17 18  1  0  0  0  0
 17 32  1  0  0  0  0
 17 33  1  0  0  0  0
 18 19  2  0  0  0  0
 18 20  2  0  0  0  0
 18 21  1  0  0  0  0
M  END
$$$$
ZINC15044754
 OpenBabel01252620473D

 50 51  0  0  0  0  0  0  0  0999 V2000
    0.0647    1.2934   -0.6822 C   0  0  0  0  0  0  0  0  0  0  0  0
    1.2389    2.0079   -0.6179 C   0  0  0  0  0  0  0  0  0  0  0  0
    2.3920    1.4114   -0.0921 C   0  0  0  0  0  0  0  0  0  0  0  0
    2.3410    0.0834    0.3675 C   0  0  0  0  0  0  0  0  0  0  0  0
    1.1537   -0.6221    0.2964 C   0  0  0  0  0  0  0  0  0  0  0  0
    0.0176   -0.0204   -0.2268 C   0  0  0  0  0  0  0  0  0  0  0  0
   -1.1456   -0.7173   -0.2944 O   0  0  0  0  0  0  0  0  0  0  0  0
    3.4529   -0.5038    0.8783 O   0  0  0  0  0  0  0  0  0  0  0  0
    3.6459    2.1678   -0.0215 C   0  0  0  0  0  0  0  0  0  0  0  0
    3.6282    3.5233   -0.1172 C   0  0  0  0  0  0  0  0  0  0  0  0
    4.7501    4.4710   -0.2497 C   0  0  0  0  0  0  0  0  0  0  0  0
    5.9061    4.0911   -0.2895 O   0  0  0  0  0  0  0  0  0  0  0  0
    4.4381    5.7539   -0.3235 N   0  0  0  0  0  0  0  0  0  0  0  0
    3.1561    6.1705   -0.2795 C   0  0  0  0  0  0  0  0  0  0  0  0
    2.5546    7.7713   -0.3599 S   0  0  0  0  0  0  0  0  0  0  0  0
    2.2378    4.6469   -0.1248 S   0  0  0  0  0  0  0  0  0  0  0  0
    5.5089    6.7448   -0.4557 C   0  0  0  0  0  0  0  0  0  0  0  0
    5.7995    6.9871   -1.9382 C   0  0  0  0  0  0  0  0  0  0  0  0
    6.9179    8.0220   -2.0762 C   0  0  0  0  0  0  0  0  0  0  0  0
    7.2084    8.2643   -3.5587 C   0  0  0  0  0  0  0  0  0  0  0  0
    8.3268    9.2992   -3.6967 C   0  0  0  0  0  0  0  0  0  0  0  0
    8.6130    9.5379   -5.1569 C   0  0  0  0  0  0  0  0  0  0  0  0
    7.9844    8.9391   -6.0038 O   0  0  0  0  0  0  0  0  0  0  0  0
    9.5676   10.4167   -5.5216 N   0  0  0  0  0  0  0  0  0  0  0  0
    9.8458   10.6486   -6.9411 C   0  0  0  0  0  0  0  0  0  0  0  0
   10.9642   11.6836   -7.0791 C   0  0  0  0  0  0  0  0  0  0  0  0
   11.2504   11.9222   -8.5394 C   0  0  0  0  0  0  0  0  0  0  0  0
   10.6184   11.3203   -9.3907 O   0  0  0  0  0  0  0  0  0  0  0  0
   12.1139   12.7172   -8.8693 O   0  0  0  0  0  1  0  0  0  0  0  0
   -0.8249    1.7558   -1.0837 H   0  0  0  0  0  0  0  0  0  0  0  0
    1.2715    3.0274   -0.9729 H   0  0  0  0  0  0  0  0  0  0  0  0
    1.1105   -1.6423    0.6479 H   0  0  0  0  0  0  0  0  0  0  0  0
   -1.2635   -1.2065   -1.1201 H   0  0  0  0  0  0  0  0  0  0  0  0
    3.5564   -0.3867    1.8326 H   0  0  0  0  0  0  0  0  0  0  0  0
    4.5838    1.6477    0.1064 H   0  0  0  0  0  0  0  0  0  0  0  0
    5.1986    7.6796    0.0112 H   0  0  0  0  0  0  0  0  0  0  0  0
    6.4090    6.3748    0.0353 H   0  0  0  0  0  0  0  0  0  0  0  0
    6.1099    6.0523   -2.4051 H   0  0  0  0  0  0  0  0  0  0  0  0
    4.8994    7.3571   -2.4291 H   0  0  0  0  0  0  0  0  0  0  0  0
    6.6075    8.9568   -1.6093 H   0  0  0  0  0  0  0  0  0  0  0  0
    7.8180    7.6520   -1.5852 H   0  0  0  0  0  0  0  0  0  0  0  0
    7.5188    7.3295   -4.0256 H   0  0  0  0  0  0  0  0  0  0  0  0
    6.3084    8.6344   -4.0496 H   0  0  0  0  0  0  0  0  0  0  0  0
    8.0165   10.2340   -3.2298 H   0  0  0  0  0  0  0  0  0  0  0  0
    9.2269    8.9292   -3.2057 H   0  0  0  0  0  0  0  0  0  0  0  0
   10.0703   10.8955   -4.8443 H   0  0  0  0  0  0  0  0  0  0  0  0
   10.1562    9.7139   -7.4080 H   0  0  0  0  0  0  0  0  0  0  0  0
    8.9457   11.0187   -7.4321 H   0  0  0  0  0  0  0  0  0  0  0  0
   10.6538   12.6183   -6.6122 H   0  0  0  0  0  0  0  0  0  0  0  0
   11.8643   11.3135   -6.5882 H   0  0  0  0  0  0  0  0  0  0  0  0
  1  6  2  0  0  0  0
  1  2  1  0  0  0  0
  1 30  1  0  0  0  0
  2  3  2  0  0  0  0
  2 31  1  0  0  0  0
  3  4  1  0  0  0  0
  3  9  1  0  0  0  0
  4  5  2  0  0  0  0
  4  8  1  0  0  0  0
  5  6  1  0  0  0  0
  5 32  1  0  0  0  0
  6  7  1  0  0  0  0
  7 33  1  0  0  0  0
  8 34  1  0  0  0  0
  9 10  2  0  0  0  0
  9 35  1  0  0  0  0
 10 16  1  0  0  0  0
 10 11  1  0  0  0  0
 11 12  2  0  0  0  0
 11 13  1  0  0  0  0
 13 14  1  0  0  0  0
 13 17  1  0  0  0  0
 14 15  2  0  0  0  0
 14 16  1  0  0  0  0
 17 18  1  0  0  0  0
 17 36  1  0  0  0  0
 17 37  1  0  0  0  0
 18 19  1  0  0  0  0
 18 38  1  0  0  0  0
 18 39  1  0  0  0  0
 19 20  1  0  0  0  0
 19 40  1  0  0  0  0
 19 41  1  0  0  0  0
 20 21  1  0  0  0  0
 20 42  1  0  0  0  0
 20 43  1  0  0  0  0
 21 22  1  0  0  0  0
 21 44  1  0  0  0  0
 21 45  1  0  0  0  0
 22 23  2  0  0  0  0
 22 24  1  0  0  0  0
 24 25  1  0  0  0  0
 24 46  1  0  0  0  0
 25 26  1  0  0  0  0
 25 47  1  0  0  0  0
 25 48  1  0  0  0  0
 26 27  1  0  0  0  0
 26 49  1  0  0  0  0
 26 50  1  0  0  0  0
 27 28  2  0  0  0  0
 27 29  1  0  0  0  0
M  END
$$$$
ZINC64438347
 OpenBabel01252620473D

 38 40  0  0  1  0  0  0  0  0999 V2000
   -0.0173    1.4248    0.0099 C   0  0  0  0  0  0  0  0  0  0  0  0
    0.0021   -0.0041    0.0020 O   0  0  0  0  0  0  0  0  0  0  0  0
    0.6058   -0.6071   -1.0557 C   0  0  0  0  0  0  0  0  0  0  0  0
    1.1730    0.1607   -2.0624 C   0  0  0  0  0  0  0  0  0  0  0  0
    1.7865   -0.4547   -3.1363 C   0  0  0  0  0  0  0  0  0  0  0  0
    1.8352   -1.8346   -3.2086 C   0  0  0  0  0  0  0  0  0  0  0  0
    1.2702   -2.6021   -2.2068 C   0  0  0  0  0  0  0  0  0  0  0  0
    0.6609   -1.9915   -1.1277 C   0  0  0  0  0  0  0  0  0  0  0  0
    2.5046   -2.5033   -4.3815 C   0  0  0  0  0  0  0  0  0  0  0  0
    3.9227   -2.7134   -4.0797 N   0  0  0  0  0  0  0  0  0  0  0  0
    4.7256   -3.3002   -4.9894 C   0  0  0  0  0  0  0  0  0  0  0  0
    4.2740   -3.6543   -6.0579 O   0  0  0  0  0  0  0  0  0  0  0  0
    6.1843   -3.5163   -4.6790 C   0  0  0  0  0  0  0  0  0  0  0  0
    6.9902   -4.3212   -6.0908 S   0  0  0  0  0  0  0  0  0  0  0  0
    8.6664   -4.5022   -5.5786 C   0  0  0  0  0  0  0  0  0  0  0  0
    8.9706   -4.0644   -4.3851 N   0  0  0  0  0  0  0  0  0  0  0  0
   10.3502   -4.1768   -3.9069 C   0  0  1  0  0  0  0  0  0  0  0  0
   10.5106   -5.1103   -3.3675 H   0  0  0  0  0  0  0  0  0  0  0  0
   11.2053   -4.0990   -5.1722 C   0  0  0  0  0  0  0  0  0  0  0  0
   12.0733   -3.1833   -4.9576 N   0  0  0  0  0  0  0  0  0  0  0  0
   11.8205   -2.5250   -3.8089 C   0  0  0  0  0  0  0  0  0  0  0  0
   10.8042   -3.0239   -3.1301 N   0  0  0  0  0  0  0  0  0  0  0  0
   10.8315   -4.9045   -6.3511 C   0  0  0  0  0  0  0  0  0  0  0  0
    9.5145   -5.0856   -6.4554 N   0  0  0  0  0  0  0  0  0  0  0  0
   11.7272   -5.4083   -7.2278 O   0  5  0  0  0  0  0  0  0  0  0  0
    1.0053    1.8021    0.0021 H   0  0  0  0  0  0  0  0  0  0  0  0
   -0.5445    1.7859   -0.8732 H   0  0  0  0  0  0  0  0  0  0  0  0
   -0.5275    1.7763    0.9067 H   0  0  0  0  0  0  0  0  0  0  0  0
    1.1347    1.2385   -2.0068 H   0  0  0  0  0  0  0  0  0  0  0  0
    2.2283    0.1425   -3.9203 H   0  0  0  0  0  0  0  0  0  0  0  0
    1.3092   -3.6798   -2.2657 H   0  0  0  0  0  0  0  0  0  0  0  0
    0.2237   -2.5913   -0.3432 H   0  0  0  0  0  0  0  0  0  0  0  0
    2.0276   -3.4646   -4.5726 H   0  0  0  0  0  0  0  0  0  0  0  0
    2.4108   -1.8695   -5.2632 H   0  0  0  0  0  0  0  0  0  0  0  0
    4.2839   -2.4302   -3.2252 H   0  0  0  0  0  0  0  0  0  0  0  0
    6.6614   -2.5551   -4.4879 H   0  0  0  0  0  0  0  0  0  0  0  0
    6.2782   -4.1502   -3.7972 H   0  0  0  0  0  0  0  0  0  0  0  0
   12.3975   -1.6774   -3.4698 H   0  0  0  0  0  0  0  0  0  0  0  0
  1  2  1  0  0  0  0
  1 26  1  0  0  0  0
  1 27  1  0  0  0  0
  1 28  1  0  0  0  0
  2  3  1  0  0  0  0
  3  8  2  0  0  0  0
  3  4  1  0  0  0  0
  4  5  2  0  0  0  0
  4 29  1  0  0  0  0
  5  6  1  0  0  0  0
  5 30  1  0  0  0  0
  6  7  2  0  0  0  0
  6  9  1  0  0  0  0
  7  8  1  0  0  0  0
  7 31  1  0  0  0  0
  8 32  1  0  0  0  0
  9 10  1  0  0  0  0
  9 33  1  0  0  0  0
  9 34  1  0  0  0  0
 10 11  1  0  0  0  0
 10 35  1  0  0  0  0
 11 12  2  0  0  0  0
 11 13  1  0  0  0  0
 13 14  1  0  0  0  0
 13 36  1  0  0  0  0
 13 37  1  0  0  0  0
 14 15  1  0  0  0  0
 15 24  1  0  0  0  0
 15 16  2  0  0  0  0
 16 17  1  0  0  0  0
 17 18  1  1  0  0  0
 17 22  1  0  0  0  0
 17 19  1  0  0  0  0
 19 20  2  0  0  0  0
 19 23  1  0  0  0  0
 20 21  1  0  0  0  0
 21 22  2  0  0  0  0
 21 38  1  0  0  0  0
 23 24  2  0  0  0  0
 23 25  1  0  0  0  0
M  CHG  1  25  -1
M  END
$$$$
ZINC05297109
 OpenBabel01252620473D

 51 51  0  0  1  0  0  0  0  0999 V2000
   -0.0187    1.5258    0.0104 C   0  0  0  0  0  0  0  0  0  0  0  0
    0.0021   -0.0041    0.0020 C   0  0  0  0  0  0  0  0  0  0  0  0
    0.7421   -0.5109    1.2415 C   0  0  0  0  0  0  0  0  0  0  0  0
    0.7625   -2.0177    1.2333 C   0  0  0  0  0  0  0  0  0  0  0  0
   -0.2754   -2.7047    1.7300 O   0  5  0  0  0  0  0  0  0  0  0  0
    1.8522   -2.6915    0.7131 C   0  0  0  0  0  0  0  0  0  0  0  0
    3.0289   -1.9880    0.1570 C   0  0  0  0  0  0  0  0  0  0  0  0
    3.4716   -0.9810    0.6695 O   0  0  0  0  0  0  0  0  0  0  0  0
    3.6528   -2.5905   -1.0855 C   0  0  0  0  0  0  0  0  0  0  0  0
    3.8802   -4.0862   -0.8504 C   0  0  2  0  0  0  0  0  0  0  0  0
    4.3367   -4.5265   -1.7368 H   0  0  0  0  0  0  0  0  0  0  0  0
    2.5453   -4.7810   -0.5681 C   0  0  1  0  0  0  0  0  0  0  0  0
    2.7152   -5.8451   -0.4039 H   0  0  0  0  0  0  0  0  0  0  0  0
    1.9291   -4.1686    0.6778 C   0  0  0  0  0  0  0  0  0  0  0  0
    1.5198   -4.8512    1.5939 O   0  0  0  0  0  0  0  0  0  0  0  0
    1.6200   -4.5927   -1.7425 C   0  0  0  0  0  0  0  0  0  0  0  0
    1.9889   -3.9669   -2.7080 O   0  0  0  0  0  0  0  0  0  0  0  0
    0.3861   -5.1204   -1.7161 O   0  0  0  0  0  0  0  0  0  0  0  0
   -0.4373   -4.9028   -2.8636 C   0  0  0  0  0  0  0  0  0  0  0  0
   -1.7959   -5.5734   -2.6510 C   0  0  0  0  0  0  0  0  0  0  0  0
    4.8121   -4.2758    0.3481 C   0  0  0  0  0  0  0  0  0  0  0  0
    6.1916   -3.7028    0.0172 C   0  0  1  0  0  0  0  0  0  0  0  0
    6.0882   -2.6629   -0.2927 H   0  0  0  0  0  0  0  0  0  0  0  0
    7.0862   -3.7792    1.2560 C   0  0  0  0  0  0  0  0  0  0  0  0
    6.9385   -4.6633   -1.3282 S   0  0  0  0  0  0  0  0  0  0  0  0
    8.4769   -3.7766   -1.6990 C   0  0  0  0  0  0  0  0  0  0  0  0
    9.2165   -4.4903   -2.8323 C   0  0  0  0  0  0  0  0  0  0  0  0
    1.0039    1.9031    0.0027 H   0  0  0  0  0  0  0  0  0  0  0  0
   -0.5459    1.8868   -0.8726 H   0  0  0  0  0  0  0  0  0  0  0  0
   -0.5289    1.8773    0.9072 H   0  0  0  0  0  0  0  0  0  0  0  0
   -1.0205   -0.3814    0.0098 H   0  0  0  0  0  0  0  0  0  0  0  0
    0.5123   -0.3556   -0.8948 H   0  0  0  0  0  0  0  0  0  0  0  0
    1.7647   -0.1336    1.2338 H   0  0  0  0  0  0  0  0  0  0  0  0
    0.2319   -0.1594    2.1383 H   0  0  0  0  0  0  0  0  0  0  0  0
    2.9831   -2.4520   -1.9343 H   0  0  0  0  0  0  0  0  0  0  0  0
    4.6068   -2.1036   -1.2878 H   0  0  0  0  0  0  0  0  0  0  0  0
   -0.5796   -3.8322   -3.0109 H   0  0  0  0  0  0  0  0  0  0  0  0
    0.0450   -5.3296   -3.7430 H   0  0  0  0  0  0  0  0  0  0  0  0
   -1.6536   -6.6440   -2.5037 H   0  0  0  0  0  0  0  0  0  0  0  0
   -2.2782   -5.1466   -1.7716 H   0  0  0  0  0  0  0  0  0  0  0  0
   -2.4240   -5.4075   -3.5263 H   0  0  0  0  0  0  0  0  0  0  0  0
    4.4011   -3.7564    1.2138 H   0  0  0  0  0  0  0  0  0  0  0  0
    4.9044   -5.3386    0.5721 H   0  0  0  0  0  0  0  0  0  0  0  0
    8.0690   -3.3709    1.0202 H   0  0  0  0  0  0  0  0  0  0  0  0
    6.6374   -3.2020    2.0644 H   0  0  0  0  0  0  0  0  0  0  0  0
    7.1896   -4.8191    1.5660 H   0  0  0  0  0  0  0  0  0  0  0  0
    8.2438   -2.7561   -2.0032 H   0  0  0  0  0  0  0  0  0  0  0  0
    9.1075   -3.7556   -0.8101 H   0  0  0  0  0  0  0  0  0  0  0  0
    9.4496   -5.5107   -2.5281 H   0  0  0  0  0  0  0  0  0  0  0  0
    8.5860   -4.5112   -3.7212 H   0  0  0  0  0  0  0  0  0  0  0  0
   10.1409   -3.9574   -3.0551 H   0  0  0  0  0  0  0  0  0  0  0  0
  1  2  1  0  0  0  0
  1 28  1  0  0  0  0
  1 29  1  0  0  0  0
  1 30  1  0  0  0  0
  2  3  1  0  0  0  0
  2 31  1  0  0  0  0
  2 32  1  0  0  0  0
  3  4  1  0  0  0  0
  3 33  1  0  0  0  0
  3 34  1  0  0  0  0
  4  5  1  0  0  0  0
  4  6  2  0  0  0  0
  6 14  1  0  0  0  0
  6  7  1  0  0  0  0
  7  8  2  0  0  0  0
  7  9  1  0  0  0  0
  9 10  1  0  0  0  0
  9 35  1  0  0  0  0
  9 36  1  0  0  0  0
 10 11  1  6  0  0  0
 10 12  1  0  0  0  0
 10 21  1  0  0  0  0
 12 13  1  1  0  0  0
 12 14  1  0  0  0  0
 12 16  1  0  0  0  0
 14 15  2  0  0  0  0
 16 17  2  0  0  0  0
 16 18  1  0  0  0  0
 18 19  1  0  0  0  0
 19 20  1  0  0  0  0
 19 37  1  0  0  0  0
 19 38  1  0  0  0  0
 20 39  1  0  0  0  0
 20 40  1  0  0  0  0
 20 41  1  0  0  0  0
 21 22  1  0  0  0  0
 21 42  1  0  0  0  0
 21 43  1  0  0  0  0
 22 23  1  6  0  0  0
 22 24  1  0  0  0  0
 22 25  1  0  0  0  0
 24 44  1  0  0  0  0
 24 45  1  0  0  0  0
 24 46  1  0  0  0  0
 25 26  1  0  0  0  0
 26 27  1  0  0  0  0
 26 47  1  0  0  0  0
 26 48  1  0  0  0  0
 27 49  1  0  0  0  0
 27 50  1  0  0  0  0
 27 51  1  0  0  0  0
M  CHG  1   5  -1
M  END
$$$$
ZINC13402674
 OpenBabel01252620473D

 51 52  0  0  0  0  0  0  0  0999 V2000
    0.0041    1.5283    0.0197 C   0  0  0  0  0  0  0  0  0  0  0  0
    0.0203   -0.0016    0.0105 C   0  0  0  0  0  0  0  0  0  0  0  0
    0.7427   -0.4964   -1.2442 C   0  0  0  0  0  0  0  0  0  0  0  0
    0.7587   -2.0033   -1.2532 C   0  0  0  0  0  0  0  0  0  0  0  0
    1.6748   -2.7689   -0.7312 N   0  0  0  0  0  0  0  0  0  0  0  0
    1.3762   -4.0049   -0.9186 N   0  0  0  0  0  0  0  0  0  0  0  0
    0.2434   -4.0953   -1.5761 C   0  0  0  0  0  0  0  0  0  0  0  0
   -0.1885   -2.8205   -1.8057 N   0  0  0  0  0  0  0  0  0  0  0  0
   -1.4113   -2.4128   -2.5020 C   0  0  0  0  0  0  0  0  0  0  0  0
   -1.1239   -2.2589   -3.9733 C   0  0  0  0  0  0  0  0  0  0  0  0
   -0.0018   -2.4701   -4.4006 O   0  0  0  0  0  0  0  0  0  0  0  0
   -2.0136   -1.9231   -4.7363 O   0  0  0  0  0  1  0  0  0  0  0  0
   -0.5690   -5.5807   -2.0641 S   0  0  0  0  0  0  0  0  0  0  0  0
    0.5169   -6.8972   -1.4492 C   0  0  0  0  0  0  0  0  0  0  0  0
   -0.0697   -8.2391   -1.8046 C   0  0  0  0  0  0  0  0  0  0  0  0
   -1.1625   -8.3042   -2.3274 O   0  0  0  0  0  0  0  0  0  0  0  0
    0.6805   -9.4661   -1.5186 C   0  0  0  0  0  0  0  0  0  0  0  0
    0.5500  -10.2845   -0.3714 C   0  0  0  0  0  0  0  0  0  0  0  0
    1.4316  -11.3145   -0.5150 C   0  0  0  0  0  0  0  0  0  0  0  0
    2.0972  -11.1535   -1.7118 N   0  0  0  0  0  0  0  0  0  0  0  0
    2.7799  -11.7487   -2.0588 H   0  0  0  0  0  0  0  0  0  0  0  0
    1.6479  -10.0480   -2.3234 C   0  0  0  0  0  0  0  0  0  0  0  0
    2.1172   -9.5251   -3.6566 C   0  0  0  0  0  0  0  0  0  0  0  0
    1.6376  -12.4074    0.4413 C   0  0  0  0  0  0  0  0  0  0  0  0
    0.9901  -12.4455    1.4698 O   0  0  0  0  0  0  0  0  0  0  0  0
    2.5454  -13.3700    0.1798 O   0  0  0  0  0  0  0  0  0  0  0  0
    2.6938  -14.4039    1.1551 C   0  0  0  0  0  0  0  0  0  0  0  0
    3.7600  -15.3966    0.6877 C   0  0  0  0  0  0  0  0  0  0  0  0
   -0.3853  -10.0600    0.7886 C   0  0  0  0  0  0  0  0  0  0  0  0
    1.0278    1.9025    0.0185 H   0  0  0  0  0  0  0  0  0  0  0  0
   -0.5167    1.8914   -0.8663 H   0  0  0  0  0  0  0  0  0  0  0  0
   -0.5105    1.8808    0.9136 H   0  0  0  0  0  0  0  0  0  0  0  0
    0.5411   -0.3648    0.8966 H   0  0  0  0  0  0  0  0  0  0  0  0
   -1.0034   -0.3759    0.0118 H   0  0  0  0  0  0  0  0  0  0  0  0
    0.2219   -0.1333   -2.1302 H   0  0  0  0  0  0  0  0  0  0  0  0
    1.7664   -0.1222   -1.2455 H   0  0  0  0  0  0  0  0  0  0  0  0
   -2.1807   -3.1716   -2.3595 H   0  0  0  0  0  0  0  0  0  0  0  0
   -1.7594   -1.4620   -2.0983 H   0  0  0  0  0  0  0  0  0  0  0  0
    1.5017   -6.7987   -1.9058 H   0  0  0  0  0  0  0  0  0  0  0  0
    0.6087   -6.8162   -0.3661 H   0  0  0  0  0  0  0  0  0  0  0  0
    3.0087   -8.9144   -3.5139 H   0  0  0  0  0  0  0  0  0  0  0  0
    2.3520  -10.3629   -4.3132 H   0  0  0  0  0  0  0  0  0  0  0  0
    1.3304   -8.9199   -4.1069 H   0  0  0  0  0  0  0  0  0  0  0  0
    2.9972  -13.9656    2.1059 H   0  0  0  0  0  0  0  0  0  0  0  0
    1.7439  -14.9234    1.2812 H   0  0  0  0  0  0  0  0  0  0  0  0
    3.4566  -15.8349   -0.2630 H   0  0  0  0  0  0  0  0  0  0  0  0
    4.7099  -14.8770    0.5616 H   0  0  0  0  0  0  0  0  0  0  0  0
    3.8732  -16.1852    1.4317 H   0  0  0  0  0  0  0  0  0  0  0  0
   -1.3345  -10.5584    0.5918 H   0  0  0  0  0  0  0  0  0  0  0  0
    0.0578  -10.4682    1.6970 H   0  0  0  0  0  0  0  0  0  0  0  0
   -0.5559   -8.9910    0.9162 H   0  0  0  0  0  0  0  0  0  0  0  0
  1  2  1  0  0  0  0
  1 30  1  0  0  0  0
  1 31  1  0  0  0  0
  1 32  1  0  0  0  0
  2  3  1  0  0  0  0
  2 33  1  0  0  0  0
  2 34  1  0  0  0  0
  3  4  1  0  0  0  0
  3 35  1  0  0  0  0
  3 36  1  0  0  0  0
  4  8  1  0  0  0  0
  4  5  2  0  0  0  0
  5  6  1  0  0  0  0
  6  7  2  0  0  0  0
  7  8  1  0  0  0  0
  7 13  1  0  0  0  0
  8  9  1  0  0  0  0
  9 10  1  0  0  0  0
  9 37  1  0  0  0  0
  9 38  1  0  0  0  0
 10 11  2  0  0  0  0
 10 12  1  0  0  0  0
 13 14  1  0  0  0  0
 14 15  1  0  0  0  0
 14 39  1  0  0  0  0
 14 40  1  0  0  0  0
 15 16  2  0  0  0  0
 15 17  1  0  0  0  0
 17 22  2  0  0  0  0
 17 18  1  0  0  0  0
 18 19  2  0  0  0  0
 18 29  1  0  0  0  0
 19 20  1  0  0  0  0
 19 24  1  0  0  0  0
 20 21  1  0  0  0  0
 20 22  1  0  0  0  0
 22 23  1  0  0  0  0
 23 41  1  0  0  0  0
 23 42  1  0  0  0  0
 23 43  1  0  0  0  0
 24 25  2  0  0  0  0
 24 26  1  0  0  0  0
 26 27  1  0  0  0  0
 27 28  1  0  0  0  0
 27 44  1  0  0  0  0
 27 45  1  0  0  0  0
 28 46  1  0  0  0  0
 28 47  1  0  0  0  0
 28 48  1  0  0  0  0
 29 49  1  0  0  0  0
 29 50  1  0  0  0  0
 29 51  1  0  0  0  0
M  END
$$$$
ZINC05482254
 OpenBabel01252620473D

 39 41  0  0  0  0  0  0  0  0999 V2000
    5.6345    3.1688   -1.9617 C   0  0  0  0  0  0  0  0  0  0  0  0
    5.8808    2.8709   -0.4813 C   0  0  0  0  0  0  0  0  0  0  0  0
    4.9714    1.7218   -0.0362 C   0  0  0  0  0  0  0  0  0  0  0  0
    3.5336    2.2355   -0.0195 C   0  0  0  0  0  0  0  0  0  0  0  0
    3.3014    3.5655   -0.0115 C   0  0  0  0  0  0  0  0  0  0  0  0
    1.5386    3.7261    0.0053 S   0  0  0  0  0  0  0  0  0  0  0  0
    1.1137    2.0032    0.0022 C   0  0  0  0  0  0  0  0  0  0  0  0
    2.3663    1.3558   -0.0125 C   0  0  0  0  0  0  0  0  0  0  0  0
    2.3205   -0.0671   -0.0196 C   0  0  0  0  0  0  0  0  0  0  0  0
    1.1464   -0.6769   -0.0121 N   0  0  0  0  0  0  0  0  0  0  0  0
    0.0021   -0.0041    0.0020 C   0  0  0  0  0  0  0  0  0  0  0  0
   -0.0159    1.3225    0.0093 N   0  0  0  0  0  0  0  0  0  0  0  0
   -1.5213   -0.8894    0.0107 S   0  0  0  0  0  0  0  0  0  0  0  0
   -0.8975   -2.5884   -0.0040 C   0  0  0  0  0  0  0  0  0  0  0  0
   -2.0581   -3.5497    0.0011 C   0  0  0  0  0  0  0  0  0  0  0  0
   -3.1908   -3.1293    0.0134 O   0  0  0  0  0  0  0  0  0  0  0  0
    3.8115   -1.0059   -0.0385 S   0  0  0  0  0  0  0  0  0  0  0  0
    3.1276   -2.6818   -0.0416 C   0  0  0  0  0  0  0  0  0  0  0  0
    4.2533   -3.6836   -0.0575 C   0  0  0  0  0  0  0  0  0  0  0  0
    5.4002   -3.3036   -0.0660 O   0  0  0  0  0  0  0  0  0  0  0  0
    4.3384    4.6458   -0.0158 C   0  0  0  0  0  0  0  0  0  0  0  0
    5.6057    4.0432    0.2904 O   0  0  0  0  0  0  0  0  0  0  0  0
    7.3422    2.4639   -0.2821 C   0  0  0  0  0  0  0  0  0  0  0  0
    6.2894    3.9787   -2.2832 H   0  0  0  0  0  0  0  0  0  0  0  0
    5.8436    2.2764   -2.5515 H   0  0  0  0  0  0  0  0  0  0  0  0
    4.5949    3.4636   -2.1049 H   0  0  0  0  0  0  0  0  0  0  0  0
    5.2562    1.3922    0.9630 H   0  0  0  0  0  0  0  0  0  0  0  0
    5.0577    0.8916   -0.7371 H   0  0  0  0  0  0  0  0  0  0  0  0
   -0.2978   -2.7476   -0.9001 H   0  0  0  0  0  0  0  0  0  0  0  0
   -0.2821   -2.7572    0.8797 H   0  0  0  0  0  0  0  0  0  0  0  0
    2.5228   -2.8290    0.8532 H   0  0  0  0  0  0  0  0  0  0  0  0
    2.5064   -2.8191   -0.9266 H   0  0  0  0  0  0  0  0  0  0  0  0
    4.3804    5.1128   -0.9998 H   0  0  0  0  0  0  0  0  0  0  0  0
    4.0938    5.3947    0.7375 H   0  0  0  0  0  0  0  0  0  0  0  0
    7.5208    2.2558    0.7728 H   0  0  0  0  0  0  0  0  0  0  0  0
    7.5538    1.5705   -0.8696 H   0  0  0  0  0  0  0  0  0  0  0  0
    7.9930    3.2754   -0.6077 H   0  0  0  0  0  0  0  0  0  0  0  0
   -1.8335   -4.8731   -0.0080 O   0  0  0  0  0  1  0  0  0  0  0  0
    3.9817   -4.9981   -0.0623 O   0  0  0  0  0  1  0  0  0  0  0  0
  1  2  1  0  0  0  0
  1 24  1  0  0  0  0
  1 25  1  0  0  0  0
  1 26  1  0  0  0  0
  2 22  1  0  0  0  0
  2  3  1  0  0  0  0
  2 23  1  0  0  0  0
  3  4  1  0  0  0  0
  3 27  1  0  0  0  0
  3 28  1  0  0  0  0
  4  8  1  0  0  0  0
  4  5  2  0  0  0  0
  5  6  1  0  0  0  0
  5 21  1  0  0  0  0
  6  7  1  0  0  0  0
  7 12  2  0  0  0  0
  7  8  1  0  0  0  0
  8  9  2  0  0  0  0
  9 10  1  0  0  0  0
  9 17  1  0  0  0  0
 10 11  2  0  0  0  0
 11 12  1  0  0  0  0
 11 13  1  0  0  0  0
 13 14  1  0  0  0  0
 14 15  1  0  0  0  0
 14 29  1  0  0  0  0
 14 30  1  0  0  0  0
 15 16  2  0  0  0  0
 15 38  1  0  0  0  0
 17 18  1  0  0  0  0
 18 19  1  0  0  0  0
 18 31  1  0  0  0  0
 18 32  1  0  0  0  0
 19 20  2  0  0  0  0
 19 39  1  0  0  0  0
 21 22  1  0  0  0  0
 21 33  1  0  0  0  0
 21 34  1  0  0  0  0
 23 35  1  0  0  0  0
 23 36  1  0  0  0  0
 23 37  1  0  0  0  0
M  END
$$$$
ZINC49063979
 OpenBabel01252620473D

 36 36  0  0  1  0  0  0  0  0999 V2000
   -0.0184    1.5028    0.0103 C   0  0  0  0  0  0  0  0  0  0  0  0
    0.0021   -0.0041    0.0020 C   0  0  0  0  0  0  0  0  0  0  0  0
    0.0057   -0.6889   -1.1975 C   0  0  0  0  0  0  0  0  0  0  0  0
    0.0240   -2.0714   -1.2060 C   0  0  0  0  0  0  0  0  0  0  0  0
    0.0391   -2.7733   -0.0143 C   0  0  0  0  0  0  0  0  0  0  0  0
    0.0360   -2.0949    1.1884 C   0  0  0  0  0  0  0  0  0  0  0  0
    0.0230   -0.7057    1.2005 C   0  0  0  0  0  0  0  0  0  0  0  0
    0.0251   -0.0163    2.4152 N   0  0  0  0  0  2  0  0  0  0  0  0
    0.0500   -0.8547    3.8431 S   0  0  0  0  0  0  0  0  0  0  0  0
   -1.1748   -1.5749    3.8621 O   0  0  0  0  0  0  0  0  0  0  0  0
    1.2942   -1.5413    3.8387 O   0  0  0  0  0  0  0  0  0  0  0  0
    0.0449    0.4209    5.1328 C   0  0  1  0  0  0  0  0  0  0  0  0
    0.9253    1.0538    5.0214 H   0  0  0  0  0  0  0  0  0  0  0  0
   -1.2174    1.2752    5.0001 C   0  0  0  0  0  0  0  0  0  0  0  0
    0.0667   -0.2359    6.4890 C   0  0  0  0  0  0  0  0  0  0  0  0
   -0.2744   -1.3889    6.6074 O   0  0  0  0  0  0  0  0  0  0  0  0
    0.4651    0.4601    7.5654 O   0  0  0  0  0  0  0  0  0  0  0  0
    0.4607   -0.2255    8.8193 C   0  0  0  0  0  0  0  0  0  0  0  0
    0.0274   -2.9410   -2.7384 S   0  0  0  0  0  0  0  0  0  0  0  0
   -0.5050   -4.2317   -2.4742 O   0  0  0  0  0  0  0  0  0  0  0  0
   -0.5401   -2.0658   -3.7034 O   0  0  0  0  0  0  0  0  0  0  0  0
    1.6102   -3.1618   -3.1726 N   0  0  0  0  0  0  0  0  0  0  0  0
    1.0042    1.8801    0.0026 H   0  0  0  0  0  0  0  0  0  0  0  0
   -0.5455    1.8639   -0.8728 H   0  0  0  0  0  0  0  0  0  0  0  0
   -0.5286    1.8543    0.9071 H   0  0  0  0  0  0  0  0  0  0  0  0
   -0.0060   -0.1439   -2.1298 H   0  0  0  0  0  0  0  0  0  0  0  0
    0.0529   -3.8531   -0.0245 H   0  0  0  0  0  0  0  0  0  0  0  0
    0.0474   -2.6436    2.1185 H   0  0  0  0  0  0  0  0  0  0  0  0
   -1.2205    2.0417    5.7751 H   0  0  0  0  0  0  0  0  0  0  0  0
   -1.2332    1.7503    4.0192 H   0  0  0  0  0  0  0  0  0  0  0  0
   -2.0978    0.6424    5.1115 H   0  0  0  0  0  0  0  0  0  0  0  0
   -0.5510   -0.5618    9.0459 H   0  0  0  0  0  0  0  0  0  0  0  0
    1.1263   -1.0869    8.7647 H   0  0  0  0  0  0  0  0  0  0  0  0
    0.8035    0.4494    9.6035 H   0  0  0  0  0  0  0  0  0  0  0  0
    2.3205   -2.8271   -2.6031 H   0  0  0  0  0  0  0  0  0  0  0  0
    1.8269   -3.6257   -3.9964 H   0  0  0  0  0  0  0  0  0  0  0  0
  1  2  1  0  0  0  0
  1 23  1  0  0  0  0
  1 24  1  0  0  0  0
  1 25  1  0  0  0  0
  2  7  2  0  0  0  0
  2  3  1  0  0  0  0
  3  4  2  0  0  0  0
  3 26  1  0  0  0  0
  4  5  1  0  0  0  0
  4 19  1  0  0  0  0
  5  6  2  0  0  0  0
  5 27  1  0  0  0  0
  6  7  1  0  0  0  0
  6 28  1  0  0  0  0
  7  8  1  0  0  0  0
  8  9  1  0  0  0  0
  9 10  2  0  0  0  0
  9 11  2  0  0  0  0
  9 12  1  0  0  0  0
 12 13  1  6  0  0  0
 12 14  1  0  0  0  0
 12 15  1  0  0  0  0
 14 29  1  0  0  0  0
 14 30  1  0  0  0  0
 14 31  1  0  0  0  0
 15 16  2  0  0  0  0
 15 17  1  0  0  0  0
 17 18  1  0  0  0  0
 18 32  1  0  0  0  0
 18 33  1  0  0  0  0
 18 34  1  0  0  0  0
 19 20  2  0  0  0  0
 19 21  2  0  0  0  0
 19 22  1  0  0  0  0
 22 35  1  0  0  0  0
 22 36  1  0  0  0  0
M  END
$$$$
ZINC13214770
 OpenBabel01252620473D

 44 47  0  0  1  0  0  0  0  0999 V2000
   -0.0362    1.3920    0.0964 C   0  0  0  0  0  0  0  0  0  0  0  0
    1.1478    2.1056    0.0751 C   0  0  0  0  0  0  0  0  0  0  0  0
    2.3555    1.4383   -0.0056 C   0  0  0  0  0  0  0  0  0  0  0  0
    2.3796    0.0572   -0.0646 C   0  0  0  0  0  0  0  0  0  0  0  0
    1.1960   -0.6562   -0.0424 C   0  0  0  0  0  0  0  0  0  0  0  0
   -0.0121    0.0114    0.0369 C   0  0  0  0  0  0  0  0  0  0  0  0
    1.2218   -2.1347   -0.1065 N   0  0  0  0  0  4  0  0  0  0  0  0
    2.2780   -2.7225   -0.0829 O   0  0  0  0  0  0  0  0  0  0  0  0
    0.1866   -2.7546   -0.1825 O   0  5  0  0  0  0  0  0  0  0  0  0
    3.6460    2.2162   -0.0298 C   0  0  2  0  0  0  0  0  0  0  0  0
    4.4738    1.5601   -0.2990 H   0  0  0  0  0  0  0  0  0  0  0  0
    3.8992    2.8450    1.3206 C   0  0  0  0  0  0  0  0  0  0  0  0
    3.9379    4.1836    1.1266 C   0  0  0  0  0  0  0  0  0  0  0  0
    3.7199    4.4737   -0.3040 C   0  0  0  0  0  0  0  0  0  0  0  0
    3.6990    5.5854   -0.7947 O   0  0  0  0  0  0  0  0  0  0  0  0
    3.5491    3.3252   -0.9863 N   0  0  0  0  0  0  0  0  0  0  0  0
    3.3198    3.2090   -2.3609 C   0  0  0  0  0  0  0  0  0  0  0  0
    2.0236    3.2195   -2.8504 C   0  0  0  0  0  0  0  0  0  0  0  0
    1.8002    3.1036   -4.2241 C   0  0  0  0  0  0  0  0  0  0  0  0
    2.8857    2.9778   -5.0959 C   0  0  0  0  0  0  0  0  0  0  0  0
    4.1719    2.9680   -4.5987 C   0  0  0  0  0  0  0  0  0  0  0  0
    4.3937    3.0886   -3.2378 C   0  0  0  0  0  0  0  0  0  0  0  0
    6.0168    3.0824   -2.6220 Cl  0  0  0  0  0  0  0  0  0  0  0  0
    0.4236    3.1134   -4.7532 C   0  0  0  0  0  0  0  0  0  0  0  0
   -0.5246    3.2231   -3.9886 O   0  0  0  0  0  0  0  0  0  0  0  0
    0.2302    3.0118   -5.9566 O   0  0  0  0  0  1  0  0  0  0  0  0
    4.1436    5.1101    2.0920 O   0  5  0  0  0  0  0  0  0  0  0  0
    4.0705    2.1401    2.5960 C   0  0  0  0  0  0  0  0  0  0  0  0
    3.2486    2.2798    3.4846 O   0  0  0  0  0  0  0  0  0  0  0  0
    5.2306    1.2677    2.8012 C   0  0  0  0  0  0  0  0  0  0  0  0
    5.5632    0.6214    3.9722 C   0  0  0  0  0  0  0  0  0  0  0  0
    6.7396   -0.0963    3.7119 C   0  0  0  0  0  0  0  0  0  0  0  0
    7.0715    0.1348    2.4213 C   0  0  0  0  0  0  0  0  0  0  0  0
    6.1596    0.9500    1.8758 O   0  0  0  0  0  0  0  0  0  0  0  0
   -0.9797    1.9132    0.1639 H   0  0  0  0  0  0  0  0  0  0  0  0
    1.1290    3.1845    0.1211 H   0  0  0  0  0  0  0  0  0  0  0  0
    3.3233   -0.4642   -0.1283 H   0  0  0  0  0  0  0  0  0  0  0  0
   -0.9370   -0.5461    0.0538 H   0  0  0  0  0  0  0  0  0  0  0  0
    1.1890    3.3166   -2.1720 H   0  0  0  0  0  0  0  0  0  0  0  0
    2.7170    2.8879   -6.1589 H   0  0  0  0  0  0  0  0  0  0  0  0
    5.0091    2.8703   -5.2738 H   0  0  0  0  0  0  0  0  0  0  0  0
    5.0238    0.6602    4.9070 H   0  0  0  0  0  0  0  0  0  0  0  0
    7.2795   -0.7175    4.4112 H   0  0  0  0  0  0  0  0  0  0  0  0
    7.9310   -0.2750    1.9117 H   0  0  0  0  0  0  0  0  0  0  0  0
  1  6  2  0  0  0  0
  1  2  1  0  0  0  0
  1 35  1  0  0  0  0
  2  3  2  0  0  0  0
  2 36  1  0  0  0  0
  3  4  1  0  0  0  0
  3 10  1  0  0  0  0
  4  5  2  0  0  0  0
  4 37  1  0  0  0  0
  5  6  1  0  0  0  0
  5  7  1  0  0  0  0
  6 38  1  0  0  0  0
  7  8  2  0  0  0  0
  7  9  1  0  0  0  0
 10 11  1  6  0  0  0
 10 16  1  0  0  0  0
 10 12  1  0  0  0  0
 12 13  2  0  0  0  0
 12 28  1  0  0  0  0
 13 14  1  0  0  0  0
 13 27  1  0  0  0  0
 14 15  2  0  0  0  0
 14 16  1  0  0  0  0
 16 17  1  0  0  0  0
 17 22  2  0  0  0  0
 17 18  1  0  0  0  0
 18 19  2  0  0  0  0
 18 39  1  0  0  0  0
 19 20  1  0  0  0  0
 19 24  1  0  0  0  0
 20 21  2  0  0  0  0
 20 40  1  0  0  0  0
 21 22  1  0  0  0  0
 21 41  1  0  0  0  0
 22 23  1  0  0  0  0
 24 25  2  0  0  0  0
 24 26  1  0  0  0  0
 28 29  2  0  0  0  0
 28 30  1  0  0  0  0
 30 34  1  0  0  0  0
 30 31  2  0  0  0  0
 31 32  1  0  0  0  0
 31 42  1  0  0  0  0
 32 33  2  0  0  0  0
 32 43  1  0  0  0  0
 33 34  1  0  0  0  0
 33 44  1  0  0  0  0
M  CHG  2   9  -1  27  -1
M  END
$$$$
ZINC49629114
 OpenBabel01252620473D

 33 33  0  0  0  0  0  0  0  0999 V2000
   -0.3601    1.1676    1.2149 C   0  0  0  0  0  0  0  0  0  0  0  0
   -0.4996   -0.3076    0.8335 C   0  0  0  0  0  0  0  0  0  0  0  0
   -1.8389   -0.5469    0.2902 N   0  0  0  0  0  0  0  0  0  0  0  0
   -2.0823   -0.4054   -1.1475 C   0  0  0  0  0  0  0  0  0  0  0  0
   -1.6050   -1.6656   -1.8720 C   0  0  0  0  0  0  0  0  0  0  0  0
   -2.8472   -0.8972    1.1131 C   0  0  0  0  0  0  0  0  0  0  0  0
   -2.6577   -0.9652    2.3118 O   0  0  0  0  0  0  0  0  0  0  0  0
   -4.1839   -1.1989    0.5576 C   0  0  0  0  0  0  0  0  0  0  0  0
   -4.3097   -1.8789   -0.6561 C   0  0  0  0  0  0  0  0  0  0  0  0
   -5.5992   -2.1389   -1.1367 C   0  0  0  0  0  0  0  0  0  0  0  0
   -6.7010   -1.7102   -0.3871 C   0  0  0  0  0  0  0  0  0  0  0  0
   -6.5348   -1.0716    0.7524 N   0  0  0  0  0  0  0  0  0  0  0  0
   -5.3388   -0.8132    1.2418 C   0  0  0  0  0  0  0  0  0  0  0  0
   -5.7928   -2.8510   -2.4095 C   0  0  0  0  0  0  0  0  0  0  0  0
   -7.0417   -3.0962   -2.8633 C   0  0  0  0  0  0  0  0  0  0  0  0
   -7.2280   -3.7815   -4.0883 C   0  0  0  0  0  0  0  0  0  0  0  0
   -6.2570   -4.1520   -4.7367 O   0  0  0  0  0  0  0  0  0  0  0  0
   -8.3602   -4.0038   -4.4997 O   0  0  0  0  0  1  0  0  0  0  0  0
    0.6364    1.3456    1.6191 H   0  0  0  0  0  0  0  0  0  0  0  0
   -0.5095    1.7872    0.3307 H   0  0  0  0  0  0  0  0  0  0  0  0
   -1.1077    1.4208    1.9666 H   0  0  0  0  0  0  0  0  0  0  0  0
    0.2480   -0.5608    0.0818 H   0  0  0  0  0  0  0  0  0  0  0  0
   -0.3501   -0.9272    1.7177 H   0  0  0  0  0  0  0  0  0  0  0  0
   -3.1490   -0.2671   -1.3235 H   0  0  0  0  0  0  0  0  0  0  0  0
   -1.5366    0.4594   -1.5250 H   0  0  0  0  0  0  0  0  0  0  0  0
   -2.1002   -1.7376   -2.8403 H   0  0  0  0  0  0  0  0  0  0  0  0
   -0.5261   -1.6138   -2.0186 H   0  0  0  0  0  0  0  0  0  0  0  0
   -1.8485   -2.5432   -1.2732 H   0  0  0  0  0  0  0  0  0  0  0  0
   -3.4372   -2.1949   -1.2085 H   0  0  0  0  0  0  0  0  0  0  0  0
   -7.7000   -1.9053   -0.7482 H   0  0  0  0  0  0  0  0  0  0  0  0
   -5.2504   -0.2910    2.1831 H   0  0  0  0  0  0  0  0  0  0  0  0
   -4.9367   -3.1776   -2.9812 H   0  0  0  0  0  0  0  0  0  0  0  0
   -7.8978   -2.7696   -2.2917 H   0  0  0  0  0  0  0  0  0  0  0  0
  1  2  1  0  0  0  0
  1 19  1  0  0  0  0
  1 20  1  0  0  0  0
  1 21  1  0  0  0  0
  2  3  1  0  0  0  0
  2 22  1  0  0  0  0
  2 23  1  0  0  0  0
  3  4  1  0  0  0  0
  3  6  1  0  0  0  0
  4  5  1  0  0  0  0
  4 24  1  0  0  0  0
  4 25  1  0  0  0  0
  5 26  1  0  0  0  0
  5 27  1  0  0  0  0
  5 28  1  0  0  0  0
  6  7  2  0  0  0  0
  6  8  1  0  0  0  0
  8 13  2  0  0  0  0
  8  9  1  0  0  0  0
  9 10  2  0  0  0  0
  9 29  1  0  0  0  0
 10 11  1  0  0  0  0
 10 14  1  0  0  0  0
 11 12  2  0  0  0  0
 11 30  1  0  0  0  0
 12 13  1  0  0  0  0
 13 31  1  0  0  0  0
 14 15  2  0  0  0  0
 14 32  1  0  0  0  0
 15 16  1  0  0  0  0
 15 33  1  0  0  0  0
 16 17  2  0  0  0  0
 16 18  1  0  0  0  0
M  END
$$$$
ZINC39465339
 OpenBabel01252620473D

 32 34  0  0  1  0  0  0  0  0999 V2000
   -0.0225    1.8097    0.0120 C   0  0  0  0  0  0  0  0  0  0  0  0
    0.0021   -0.0041    0.0020 S   0  0  0  0  0  0  0  0  0  0  0  0
    0.8484   -0.4107   -1.4889 C   0  0  0  0  0  0  0  0  0  0  0  0
    1.3147    0.5954   -2.3215 C   0  0  0  0  0  0  0  0  0  0  0  0
    1.9810    0.2809   -3.4966 C   0  0  0  0  0  0  0  0  0  0  0  0
    2.1801   -1.0404   -3.8367 C   0  0  0  0  0  0  0  0  0  0  0  0
    1.7153   -2.0503   -3.0071 C   0  0  0  0  0  0  0  0  0  0  0  0
    1.0567   -1.7427   -1.8331 C   0  0  0  0  0  0  0  0  0  0  0  0
    0.6122   -2.7301   -1.0253 F   0  0  0  0  0  0  0  0  0  0  0  0
    2.9016   -1.4258   -5.1032 C   0  0  0  0  0  0  0  0  0  0  0  0
    2.9140   -0.2409   -6.0688 C   0  0  0  0  0  0  0  0  0  0  0  0
    3.4271    0.9417   -5.3606 N   0  0  2  0  0  0  0  0  0  0  0  0
    2.4649    1.4128   -4.3646 C   0  0  2  0  0  0  0  0  0  0  0  0
    1.6097    1.8478   -4.8818 H   0  0  0  0  0  0  0  0  0  0  0  0
    3.0812    2.4963   -3.4745 C   0  0  0  0  0  0  0  0  0  0  0  0
    3.4345    3.6250   -4.2985 O   0  0  0  0  0  0  0  0  0  0  0  0
    4.3047    3.3532   -5.6453 P   0  0  1  0  0  0  0  0  0  0  0  0
    5.8029    3.2153   -5.2939 O   0  0  0  0  0  0  0  0  0  0  0  0
    3.7309    1.9329   -6.2673 N   0  0  0  0  0  0  0  0  0  0  0  0
    4.0980    4.5038   -6.6555 O   0  0  0  0  0  1  0  0  0  0  0  0
    1.0001    2.1870    0.0043 H   0  0  0  0  0  0  0  0  0  0  0  0
   -0.5497    2.1708   -0.8711 H   0  0  0  0  0  0  0  0  0  0  0  0
   -0.5327    2.1613    0.9088 H   0  0  0  0  0  0  0  0  0  0  0  0
    1.1579    1.6298   -2.0535 H   0  0  0  0  0  0  0  0  0  0  0  0
    1.8734   -3.0835   -3.2790 H   0  0  0  0  0  0  0  0  0  0  0  0
    3.9264   -1.7101   -4.8647 H   0  0  0  0  0  0  0  0  0  0  0  0
    2.3910   -2.2684   -5.5695 H   0  0  0  0  0  0  0  0  0  0  0  0
    3.5599   -0.4676   -6.9170 H   0  0  0  0  0  0  0  0  0  0  0  0
    1.9010   -0.0453   -6.4202 H   0  0  0  0  0  0  0  0  0  0  0  0
    2.3570    2.8061   -2.7210 H   0  0  0  0  0  0  0  0  0  0  0  0
    3.9745    2.1052   -2.9875 H   0  0  0  0  0  0  0  0  0  0  0  0
    3.6145    1.8042   -7.2216 H   0  0  0  0  0  0  0  0  0  0  0  0
  1  2  1  0  0  0  0
  1 21  1  0  0  0  0
  1 22  1  0  0  0  0
  1 23  1  0  0  0  0
  2  3  1  0  0  0  0
  3  8  2  0  0  0  0
  3  4  1  0  0  0  0
  4  5  2  0  0  0  0
  4 24  1  0  0  0  0
  5 13  1  0  0  0  0
  5  6  1  0  0  0  0
  6  7  2  0  0  0  0
  6 10  1  0  0  0  0
  7  8  1  0  0  0  0
  7 25  1  0  0  0  0
  8  9  1  0  0  0  0
 10 11  1  0  0  0  0
 10 26  1  0  0  0  0
 10 27  1  0  0  0  0
 11 28  1  0  0  0  0
 11 29  1  0  0  0  0
 12 11  1  6  0  0  0
 12 19  1  0  0  0  0
 12 13  1  0  0  0  0
 13 14  1  6  0  0  0
 13 15  1  0  0  0  0
 15 16  1  0  0  0  0
 15 30  1  0  0  0  0
 15 31  1  0  0  0  0
 16 17  1  0  0  0  0
 17 18  2  1  0  0  0
 17 19  1  0  0  0  0
 17 20  1  0  0  0  0
 19 32  1  0  0  0  0
M  END
$$$$
ZINC15941568
 OpenBabel01252620473D

 55 58  0  0  0  0  0  0  0  0999 V2000
   -0.0095    1.3588   -0.1476 C   0  0  0  0  0  0  0  0  0  0  0  0
    1.1739    2.0696   -0.1742 C   0  0  0  0  0  0  0  0  0  0  0  0
    2.3868    1.4126    0.0258 C   0  0  0  0  0  0  0  0  0  0  0  0
    2.4011    0.0385    0.2523 C   0  0  0  0  0  0  0  0  0  0  0  0
    1.2082   -0.6683    0.2775 C   0  0  0  0  0  0  0  0  0  0  0  0
    0.0034   -0.0045    0.0770 C   0  0  0  0  0  0  0  0  0  0  0  0
    1.2173   -2.0466    0.5043 N   0  0  0  0  0  2  0  0  0  0  0  0
   -0.2074   -2.8902    0.5344 S   0  0  0  0  0  0  0  0  0  0  0  0
   -0.9277   -2.4305    1.6698 O   0  0  0  0  0  0  0  0  0  0  0  0
   -0.7413   -2.8326   -0.7812 O   0  0  0  0  0  0  0  0  0  0  0  0
    0.1932   -4.5784    0.8418 C   0  0  0  0  0  0  0  0  0  0  0  0
    0.4454   -5.4324   -0.2155 C   0  0  0  0  0  0  0  0  0  0  0  0
    0.7597   -6.7568    0.0256 C   0  0  0  0  0  0  0  0  0  0  0  0
    0.8221   -7.2270    1.3241 C   0  0  0  0  0  0  0  0  0  0  0  0
    0.5708   -6.3727    2.3814 C   0  0  0  0  0  0  0  0  0  0  0  0
    0.2607   -5.0473    2.1404 C   0  0  0  0  0  0  0  0  0  0  0  0
    1.1637   -8.6711    1.5869 C   0  0  0  0  0  0  0  0  0  0  0  0
    2.5499   -8.8056    1.7197 F   0  0  0  0  0  0  0  0  0  0  0  0
    0.5393   -9.0908    2.7664 F   0  0  0  0  0  0  0  0  0  0  0  0
    0.7191   -9.4574    0.5186 F   0  0  0  0  0  0  0  0  0  0  0  0
    3.6591    2.1748   -0.0030 C   0  0  0  0  0  0  0  0  0  0  0  0
    3.6393    3.5688   -0.1205 C   0  0  0  0  0  0  0  0  0  0  0  0
    4.8511    4.2352   -0.1425 C   0  0  0  0  0  0  0  0  0  0  0  0
    6.0184    3.4759   -0.0460 C   0  0  0  0  0  0  0  0  0  0  0  0
    5.9418    2.1573    0.0625 N   0  0  0  0  0  0  0  0  0  0  0  0
    4.8181    1.5375    0.0881 N   0  0  0  0  0  0  0  0  0  0  0  0
    7.2592    4.1017   -0.0642 N   0  0  0  0  0  0  0  0  0  0  0  0
    8.4447    3.2864   -0.2062 C   0  0  0  0  0  0  0  0  0  0  0  0
    8.9459    2.8503    1.1927 C   0  0  0  0  0  0  0  0  0  0  0  0
    9.5215    3.9983    1.9099 C   0  0  0  0  0  0  0  0  0  0  0  0
    8.5295    5.1213    2.1973 C   0  0  0  0  0  0  0  0  0  0  0  0
    8.4445    6.0327    0.9979 C   0  0  0  0  0  0  0  0  0  0  0  0
    7.3120    5.5719    0.0563 C   0  0  0  0  0  0  0  0  0  0  0  0
   -0.9485    1.8706   -0.2983 H   0  0  0  0  0  0  0  0  0  0  0  0
    1.1598    3.1351   -0.3504 H   0  0  0  0  0  0  0  0  0  0  0  0
    3.3384   -0.4752    0.4075 H   0  0  0  0  0  0  0  0  0  0  0  0
   -0.9250   -0.5559    0.0968 H   0  0  0  0  0  0  0  0  0  0  0  0
    0.3966   -5.0651   -1.2299 H   0  0  0  0  0  0  0  0  0  0  0  0
    0.9560   -7.4243   -0.8004 H   0  0  0  0  0  0  0  0  0  0  0  0
    0.6192   -6.7402    3.3958 H   0  0  0  0  0  0  0  0  0  0  0  0
    0.0680   -4.3790    2.9666 H   0  0  0  0  0  0  0  0  0  0  0  0
    2.7063    4.1080   -0.1923 H   0  0  0  0  0  0  0  0  0  0  0  0
    4.8929    5.3106   -0.2319 H   0  0  0  0  0  0  0  0  0  0  0  0
    8.2085    2.4026   -0.7989 H   0  0  0  0  0  0  0  0  0  0  0  0
    9.2230    3.8617   -0.7075 H   0  0  0  0  0  0  0  0  0  0  0  0
    8.1105    2.4486    1.7662 H   0  0  0  0  0  0  0  0  0  0  0  0
    9.7065    2.0779    1.0788 H   0  0  0  0  0  0  0  0  0  0  0  0
    9.9290    3.6456    2.8573 H   0  0  0  0  0  0  0  0  0  0  0  0
   10.3398    4.4033    1.3146 H   0  0  0  0  0  0  0  0  0  0  0  0
    7.5470    4.6954    2.4009 H   0  0  0  0  0  0  0  0  0  0  0  0
    8.8660    5.6908    3.0637 H   0  0  0  0  0  0  0  0  0  0  0  0
    8.2454    7.0512    1.3313 H   0  0  0  0  0  0  0  0  0  0  0  0
    9.3913    6.0095    0.4584 H   0  0  0  0  0  0  0  0  0  0  0  0
    7.4714    6.0025   -0.9323 H   0  0  0  0  0  0  0  0  0  0  0  0
    6.3592    5.9294    0.4468 H   0  0  0  0  0  0  0  0  0  0  0  0
  1  6  2  0  0  0  0
  1  2  1  0  0  0  0
  1 34  1  0  0  0  0
  2  3  2  0  0  0  0
  2 35  1  0  0  0  0
  3  4  1  0  0  0  0
  3 21  1  0  0  0  0
  4  5  2  0  0  0  0
  4 36  1  0  0  0  0
  5  6  1  0  0  0  0
  5  7  1  0  0  0  0
  6 37  1  0  0  0  0
  7  8  1  0  0  0  0
  8  9  2  0  0  0  0
  8 10  2  0  0  0  0
  8 11  1  0  0  0  0
 11 16  2  0  0  0  0
 11 12  1  0  0  0  0
 12 13  2  0  0  0  0
 12 38  1  0  0  0  0
 13 14  1  0  0  0  0
 13 39  1  0  0  0  0
 14 15  2  0  0  0  0
 14 17  1  0  0  0  0
 15 16  1  0  0  0  0
 15 40  1  0  0  0  0
 16 41  1  0  0  0  0
 17 18  1  0  0  0  0
 17 19  1  0  0  0  0
 17 20  1  0  0  0  0
 21 26  2  0  0  0  0
 21 22  1  0  0  0  0
 22 23  2  0  0  0  0
 22 42  1  0  0  0  0
 23 24  1  0  0  0  0
 23 43  1  0  0  0  0
 24 25  2  0  0  0  0
 24 27  1  0  0  0  0
 25 26  1  0  0  0  0
 27 33  1  0  0  0  0
 27 28  1  0  0  0  0
 28 29  1  0  0  0  0
 28 44  1  0  0  0  0
 28 45  1  0  0  0  0
 29 30  1  0  0  0  0
 29 46  1  0  0  0  0
 29 47  1  0  0  0  0
 30 31  1  0  0  0  0
 30 48  1  0  0  0  0
 30 49  1  0  0  0  0
 31 32  1  0  0  0  0
 31 50  1  0  0  0  0
 31 51  1  0  0  0  0
 32 33  1  0  0  0  0
 32 52  1  0  0  0  0
 32 53  1  0  0  0  0
 33 54  1  0  0  0  0
 33 55  1  0  0  0  0
M  END
$$$$
ZINC61873708
 OpenBabel01252620473D

 33 34  0  0  0  0  0  0  0  0999 V2000
   -0.0480    1.8638   -0.2667 C   0  0  0  0  0  0  0  0  0  0  0  0
    0.1491    0.4122   -0.2504 N   0  0  0  0  0  0  0  0  0  0  0  0
   -1.1547   -0.5989   -0.1090 S   0  0  0  0  0  0  0  0  0  0  0  0
   -0.6465   -1.9253   -0.1509 O   0  0  0  0  0  0  0  0  0  0  0  0
   -1.9288   -0.1137    0.9795 O   0  0  0  0  0  0  0  0  0  0  0  0
   -2.1359   -0.3895   -1.5574 C   0  0  0  0  0  0  0  0  0  0  0  0
   -3.1337    0.5679   -1.5835 C   0  0  0  0  0  0  0  0  0  0  0  0
   -3.9062    0.7351   -2.7179 C   0  0  0  0  0  0  0  0  0  0  0  0
   -3.6835   -0.0541   -3.8294 C   0  0  0  0  0  0  0  0  0  0  0  0
   -2.6821   -1.0161   -3.8068 C   0  0  0  0  0  0  0  0  0  0  0  0
   -1.9041   -1.1777   -2.6673 C   0  0  0  0  0  0  0  0  0  0  0  0
   -2.4541   -1.8167   -4.9303 N   0  0  0  0  0  0  0  0  0  0  0  0
   -2.6455   -1.3140   -6.1661 C   0  0  0  0  0  0  0  0  0  0  0  0
   -2.9229   -0.1393   -6.3080 O   0  0  0  0  0  0  0  0  0  0  0  0
   -2.5178   -2.1930   -7.3509 C   0  0  0  0  0  0  0  0  0  0  0  0
   -2.7113   -1.6657   -8.6263 C   0  0  0  0  0  0  0  0  0  0  0  0
   -2.5886   -2.4999   -9.7254 C   0  0  0  0  0  0  0  0  0  0  0  0
   -2.2761   -3.8347   -9.5113 C   0  0  0  0  0  0  0  0  0  0  0  0
   -2.0972   -4.2910   -8.2140 C   0  0  0  0  0  0  0  0  0  0  0  0
   -2.2146   -3.4752   -7.1893 N   0  0  0  0  0  0  0  0  0  0  0  0
   -2.0966   -5.0199  -10.9738 Br  0  0  0  0  0  0  0  0  0  0  0  0
    0.9172    2.3604   -0.3654 H   0  0  0  0  0  0  0  0  0  0  0  0
   -0.6840    2.1347   -1.1095 H   0  0  0  0  0  0  0  0  0  0  0  0
   -0.5240    2.1763    0.6628 H   0  0  0  0  0  0  0  0  0  0  0  0
    1.0433    0.0433   -0.3224 H   0  0  0  0  0  0  0  0  0  0  0  0
   -3.3101    1.1860   -0.7156 H   0  0  0  0  0  0  0  0  0  0  0  0
   -4.6848    1.4834   -2.7349 H   0  0  0  0  0  0  0  0  0  0  0  0
   -4.2877    0.0765   -4.7150 H   0  0  0  0  0  0  0  0  0  0  0  0
   -1.1219   -1.9221   -2.6479 H   0  0  0  0  0  0  0  0  0  0  0  0
   -2.1582   -2.7339   -4.8203 H   0  0  0  0  0  0  0  0  0  0  0  0
   -2.9540   -0.6213   -8.7560 H   0  0  0  0  0  0  0  0  0  0  0  0
   -2.7332   -2.1201  -10.7260 H   0  0  0  0  0  0  0  0  0  0  0  0
   -1.8539   -5.3292   -8.0433 H   0  0  0  0  0  0  0  0  0  0  0  0
  1  2  1  0  0  0  0
  1 22  1  0  0  0  0
  1 23  1  0  0  0  0
  1 24  1  0  0  0  0
  2  3  1  0  0  0  0
  2 25  1  0  0  0  0
  3  4  2  0  0  0  0
  3  5  2  0  0  0  0
  3  6  1  0  0  0  0
  6 11  2  0  0  0  0
  6  7  1  0  0  0  0
  7  8  2  0  0  0  0
  7 26  1  0  0  0  0
  8  9  1  0  0  0  0
  8 27  1  0  0  0  0
  9 10  2  0  0  0  0
  9 28  1  0  0  0  0
 10 11  1  0  0  0  0
 10 12  1  0  0  0  0
 11 29  1  0  0  0  0
 12 13  1  0  0  0  0
 12 30  1  0  0  0  0
 13 14  2  0  0  0  0
 13 15  1  0  0  0  0
 15 20  2  0  0  0  0
 15 16  1  0  0  0  0
 16 17  2  0  0  0  0
 16 31  1  0  0  0  0
 17 18  1  0  0  0  0
 17 32  1  0  0  0  0
 18 19  2  0  0  0  0
 18 21  1  0  0  0  0
 19 20  1  0  0  0  0
 19 33  1  0  0  0  0
M  END
$$$$
ZINC66003172
 OpenBabel01252620473D

 36 37  0  0  0  0  0  0  0  0999 V2000
    0.1281    1.3524    0.0992 C   0  0  0  0  0  0  0  0  0  0  0  0
   -0.0162   -0.1466    0.0435 C   0  0  0  0  0  0  0  0  0  0  0  0
   -1.1453   -0.8936   -0.0233 C   0  0  0  0  0  0  0  0  0  0  0  0
   -1.0364   -2.2709   -0.0663 C   0  0  0  0  0  0  0  0  0  0  0  0
    0.1963   -2.8339   -0.0404 C   0  0  0  0  0  0  0  0  0  0  0  0
    1.2559   -1.3993    0.0405 S   0  0  0  0  0  0  0  0  0  0  0  0
    0.5746   -4.2922   -0.0763 C   0  0  0  0  0  0  0  0  0  0  0  0
    0.7526   -4.7299   -1.5073 C   0  0  0  0  0  0  0  0  0  0  0  0
    1.0946   -6.0051   -1.7851 O   0  5  0  0  0  0  0  0  0  0  0  0
    0.5780   -3.8850   -2.4669 N   0  0  0  0  0  0  0  0  0  0  0  0
    0.7737   -4.3660   -4.0394 S   0  0  0  0  0  0  0  0  0  0  0  0
    2.1499   -4.6817   -4.1993 O   0  0  0  0  0  0  0  0  0  0  0  0
   -0.2593   -5.3039   -4.3087 O   0  0  0  0  0  0  0  0  0  0  0  0
    0.4574   -2.9625   -5.0566 C   0  0  0  0  0  0  0  0  0  0  0  0
   -0.7847   -2.5858   -5.5766 C   0  0  0  0  0  0  0  0  0  0  0  0
   -0.5845   -1.4366   -6.3116 C   0  0  0  0  0  0  0  0  0  0  0  0
    0.7541   -1.1247   -6.2371 N   0  0  0  0  0  0  0  0  0  0  0  0
    1.3734   -2.0538   -5.4689 C   0  0  0  0  0  0  0  0  0  0  0  0
    1.4007    0.0240   -6.8765 C   0  0  0  0  0  0  0  0  0  0  0  0
   -1.6108   -0.6840   -7.0408 C   0  0  0  0  0  0  0  0  0  0  0  0
   -1.3285    0.3757   -7.5684 O   0  0  0  0  0  0  0  0  0  0  0  0
   -2.8665   -1.1660   -7.1266 N   0  0  0  0  0  0  0  0  0  0  0  0
    1.1853    1.6143    0.1417 H   0  0  0  0  0  0  0  0  0  0  0  0
   -0.3201    1.7939   -0.7909 H   0  0  0  0  0  0  0  0  0  0  0  0
   -0.3765    1.7333    0.9871 H   0  0  0  0  0  0  0  0  0  0  0  0
   -2.1156   -0.4197   -0.0423 H   0  0  0  0  0  0  0  0  0  0  0  0
   -1.9203   -2.8892   -0.1194 H   0  0  0  0  0  0  0  0  0  0  0  0
    1.5078   -4.4390    0.4674 H   0  0  0  0  0  0  0  0  0  0  0  0
   -0.2139   -4.8836    0.3892 H   0  0  0  0  0  0  0  0  0  0  0  0
   -1.7239   -3.0985   -5.4304 H   0  0  0  0  0  0  0  0  0  0  0  0
    2.4260   -2.0688   -5.2274 H   0  0  0  0  0  0  0  0  0  0  0  0
    1.4438    0.8550   -6.1725 H   0  0  0  0  0  0  0  0  0  0  0  0
    2.4118   -0.2496   -7.1781 H   0  0  0  0  0  0  0  0  0  0  0  0
    0.8275    0.3211   -7.7547 H   0  0  0  0  0  0  0  0  0  0  0  0
   -3.1103   -1.9725   -6.6458 H   0  0  0  0  0  0  0  0  0  0  0  0
   -3.5264   -0.7066   -7.6691 H   0  0  0  0  0  0  0  0  0  0  0  0
  1  2  1  0  0  0  0
  1 23  1  0  0  0  0
  1 24  1  0  0  0  0
  1 25  1  0  0  0  0
  2  6  1  0  0  0  0
  2  3  2  0  0  0  0
  3  4  1  0  0  0  0
  3 26  1  0  0  0  0
  4  5  2  0  0  0  0
  4 27  1  0  0  0  0
  5  6  1  0  0  0  0
  5  7  1  0  0  0  0
  7  8  1  0  0  0  0
  7 28  1  0  0  0  0
  7 29  1  0  0  0  0
  8  9  1  0  0  0  0
  8 10  2  0  0  0  0
 10 11  1  0  0  0  0
 11 12  2  0  0  0  0
 11 13  2  0  0  0  0
 11 14  1  0  0  0  0
 14 18  2  0  0  0  0
 14 15  1  0  0  0  0
 15 16  2  0  0  0  0
 15 30  1  0  0  0  0
 16 17  1  0  0  0  0
 16 20  1  0  0  0  0
 17 18  1  0  0  0  0
 17 19  1  0  0  0  0
 18 31  1  0  0  0  0
 19 32  1  0  0  0  0
 19 33  1  0  0  0  0
 19 34  1  0  0  0  0
 20 21  2  0  0  0  0
 20 22  1  0  0  0  0
 22 35  1  0  0  0  0
 22 36  1  0  0  0  0
M  CHG  1   9  -1
M  END
$$$$
ZINC52886080
 OpenBabel01252620473D

 37 39  0  0  1  0  0  0  0  0999 V2000
   -0.6566    0.8621   -1.5496 C   0  0  0  0  0  0  0  0  0  0  0  0
   -0.2865   -0.2745   -0.7026 N   0  0  0  0  0  0  0  0  0  0  0  0
   -0.9634   -0.6649    0.5432 C   0  0  0  0  0  0  0  0  0  0  0  0
   -0.1800   -1.9048    1.0162 C   0  0  0  0  0  0  0  0  0  0  0  0
    0.8551   -2.0814   -0.0132 N   0  0  0  0  0  0  0  0  0  0  0  0
    0.7186   -1.1267   -0.9429 C   0  0  0  0  0  0  0  0  0  0  0  0
    1.4439   -1.0393   -1.9148 O   0  0  0  0  0  0  0  0  0  0  0  0
    1.8704   -3.1374   -0.0237 C   0  0  1  0  0  0  0  0  0  0  0  0
    3.2660   -2.5109   -0.1262 C   0  0  0  0  0  0  0  0  0  0  0  0
    3.3814   -1.4158    0.9322 C   0  0  0  0  0  0  0  0  0  0  0  0
    2.9783   -1.9422    2.2848 C   0  0  0  0  0  0  0  0  0  0  0  0
    3.3743   -1.2207    3.4038 C   0  0  0  0  0  0  0  0  0  0  0  0
    3.0320   -1.6472    4.6701 C   0  0  0  0  0  0  0  0  0  0  0  0
    2.2878   -2.8018    4.8278 C   0  0  0  0  0  0  0  0  0  0  0  0
    1.8957   -3.5209    3.7180 C   0  0  0  0  0  0  0  0  0  0  0  0
    2.2425   -3.0950    2.4421 C   0  0  0  0  0  0  0  0  0  0  0  0
    1.7948   -3.9365    1.2757 C   0  0  0  0  0  0  0  0  0  0  0  0
    1.6373   -4.0538   -1.1971 C   0  0  0  0  0  0  0  0  0  0  0  0
    0.7075   -3.8457   -1.9578 O   0  0  0  0  0  0  0  0  0  0  0  0
    2.3786   -5.0032   -1.3858 O   0  0  0  0  0  1  0  0  0  0  0  0
    0.0135    0.9088   -2.4080 H   0  0  0  0  0  0  0  0  0  0  0  0
   -1.6826    0.7382   -1.8959 H   0  0  0  0  0  0  0  0  0  0  0  0
   -0.5759    1.7848   -0.9750 H   0  0  0  0  0  0  0  0  0  0  0  0
   -0.8969    0.1343    1.2814 H   0  0  0  0  0  0  0  0  0  0  0  0
   -2.0048   -0.9215    0.3485 H   0  0  0  0  0  0  0  0  0  0  0  0
    0.2755   -1.7212    1.9893 H   0  0  0  0  0  0  0  0  0  0  0  0
   -0.8324   -2.7771    1.0565 H   0  0  0  0  0  0  0  0  0  0  0  0
    4.0246   -3.2734    0.0503 H   0  0  0  0  0  0  0  0  0  0  0  0
    3.4026   -2.0791   -1.1176 H   0  0  0  0  0  0  0  0  0  0  0  0
    4.4126   -1.0652    0.9757 H   0  0  0  0  0  0  0  0  0  0  0  0
    2.7308   -0.5843    0.6616 H   0  0  0  0  0  0  0  0  0  0  0  0
    3.9554   -0.3186    3.2814 H   0  0  0  0  0  0  0  0  0  0  0  0
    3.3444   -1.0815    5.5354 H   0  0  0  0  0  0  0  0  0  0  0  0
    2.0148   -3.1397    5.8166 H   0  0  0  0  0  0  0  0  0  0  0  0
    1.3142   -4.4225    3.8420 H   0  0  0  0  0  0  0  0  0  0  0  0
    0.7668   -4.2598    1.4395 H   0  0  0  0  0  0  0  0  0  0  0  0
    2.4382   -4.8127    1.1968 H   0  0  0  0  0  0  0  0  0  0  0  0
  1  2  1  0  0  0  0
  1 21  1  0  0  0  0
  1 22  1  0  0  0  0
  1 23  1  0  0  0  0
  2  6  1  0  0  0  0
  2  3  1  0  0  0  0
  3  4  1  0  0  0  0
  3 24  1  0  0  0  0
  3 25  1  0  0  0  0
  4  5  1  0  0  0  0
  4 26  1  0  0  0  0
  4 27  1  0  0  0  0
  5  6  1  0  0  0  0
  5  8  1  0  0  0  0
  6  7  2  0  0  0  0
  8 17  1  0  0  0  0
  8  9  1  0  0  0  0
  8 18  1  6  0  0  0
  9 10  1  0  0  0  0
  9 28  1  0  0  0  0
  9 29  1  0  0  0  0
 10 11  1  0  0  0  0
 10 30  1  0  0  0  0
 10 31  1  0  0  0  0
 11 16  2  0  0  0  0
 11 12  1  0  0  0  0
 12 13  2  0  0  0  0
 12 32  1  0  0  0  0
 13 14  1  0  0  0  0
 13 33  1  0  0  0  0
 14 15  2  0  0  0  0
 14 34  1  0  0  0  0
 15 16  1  0  0  0  0
 15 35  1  0  0  0  0
 16 17  1  0  0  0  0
 17 36  1  0  0  0  0
 17 37  1  0  0  0  0
 18 19  2  0  0  0  0
 18 20  1  0  0  0  0
M  END
$$$$
ZINC01589202
 OpenBabel01252620473D

 17 17  0  0  0  0  0  0  0  0999 V2000
   -1.4414   -2.3120   -2.4131 C   0  0  0  0  0  0  0  0  0  0  0  0
   -1.0713   -2.9686   -1.1569 N   0  0  0  0  0  0  0  0  0  0  0  0
   -0.7823   -2.2282   -0.0509 C   0  0  0  0  0  0  0  0  0  0  0  0
   -0.4446   -2.8648    1.0740 C   0  0  0  0  0  0  0  0  0  0  0  0
   -0.5437   -4.5739    0.5700 S   0  0  0  0  0  0  0  0  0  0  0  0
   -1.0127   -4.3176   -1.0807 C   0  0  0  0  0  0  0  0  0  0  0  0
   -1.3231   -5.4770   -2.3015 S   0  0  0  0  0  0  0  0  0  0  0  0
   -0.8362   -0.7229   -0.0969 C   0  0  0  0  0  0  0  0  0  0  0  0
    0.5370   -0.1800   -0.3982 C   0  0  0  0  0  0  0  0  0  0  0  0
    1.4642   -0.9378   -0.5592 O   0  0  0  0  0  0  0  0  0  0  0  0
   -0.5389   -2.0280   -2.9543 H   0  0  0  0  0  0  0  0  0  0  0  0
   -2.0295   -2.9984   -3.0223 H   0  0  0  0  0  0  0  0  0  0  0  0
   -2.0312   -1.4211   -2.1975 H   0  0  0  0  0  0  0  0  0  0  0  0
   -0.1813   -2.4528    2.0370 H   0  0  0  0  0  0  0  0  0  0  0  0
   -1.1741   -0.3419    0.8668 H   0  0  0  0  0  0  0  0  0  0  0  0
   -1.5304   -0.4078   -0.8759 H   0  0  0  0  0  0  0  0  0  0  0  0
    0.7299    1.1453   -0.4879 O   0  0  0  0  0  1  0  0  0  0  0  0
  1  2  1  0  0  0  0
  1 11  1  0  0  0  0
  1 12  1  0  0  0  0
  1 13  1  0  0  0  0
  2  6  1  0  0  0  0
  2  3  1  0  0  0  0
  3  4  2  0  0  0  0
  3  8  1  0  0  0  0
  4  5  1  0  0  0  0
  4 14  1  0  0  0  0
  5  6  1  0  0  0  0
  6  7  2  0  0  0  0
  8  9  1  0  0  0  0
  8 15  1  0  0  0  0
  8 16  1  0  0  0  0
  9 10  2  0  0  0  0
  9 17  1  0  0  0  0
M  END
$$$$
ZINC13640299
 OpenBabel01252620473D

 41 43  0  0  1  0  0  0  0  0999 V2000
    2.2106    5.4687    0.1000 C   0  0  0  0  0  0  0  0  0  0  0  0
    1.1630    4.3856    0.0798 C   0  0  0  0  0  0  0  0  0  0  0  0
    1.4952    3.2239    0.0753 O   0  0  0  0  0  0  0  0  0  0  0  0
   -0.1391    4.7114    0.0725 O   0  0  0  0  0  0  0  0  0  0  0  0
   -1.0905    3.6219   -0.0545 C   0  0  0  0  0  0  0  0  0  0  0  0
   -2.4846    4.1829   -0.1669 C   0  0  0  0  0  0  0  0  0  0  0  0
   -3.4626    3.2910   -0.2106 C   0  0  0  0  0  0  0  0  0  0  0  0
   -4.7950    3.7082   -0.3642 N   0  0  0  0  0  0  0  0  0  0  0  0
   -5.3373    5.0773   -0.0917 C   0  0  2  0  0  0  0  0  0  0  0  0
   -5.5630    5.3191    0.9469 H   0  0  0  0  0  0  0  0  0  0  0  0
   -6.5279    4.6444   -0.9407 C   0  0  2  0  0  0  0  0  0  0  0  0
   -7.4850    4.7253   -0.4254 H   0  0  0  0  0  0  0  0  0  0  0  0
   -5.9342    3.2463   -0.9082 C   0  0  0  0  0  0  0  0  0  0  0  0
   -6.3307    2.1493   -1.2406 O   0  0  0  0  0  0  0  0  0  0  0  0
   -6.5462    5.2445   -2.2770 N   0  0  0  0  0  0  0  0  0  0  0  0
   -7.7127    5.3826   -2.9378 C   0  0  0  0  0  0  0  0  0  0  0  0
   -8.7598    5.0941   -2.3901 O   0  0  0  0  0  0  0  0  0  0  0  0
   -7.7196    5.8821   -4.3210 C   0  0  0  0  0  0  0  0  0  0  0  0
   -7.8245    5.1269   -5.4774 C   0  0  0  0  0  0  0  0  0  0  0  0
   -7.7846    6.0498   -6.5264 C   0  0  0  0  0  0  0  0  0  0  0  0
   -7.6657    7.2443   -6.0060 N   0  0  0  0  0  0  0  0  0  0  0  0
   -7.6298    7.1854   -4.7235 N   0  0  0  0  0  0  0  0  0  0  0  0
   -7.5079    8.3389   -3.8285 C   0  0  0  0  0  0  0  0  0  0  0  0
   -7.9870    3.2475   -5.6090 Br  0  0  0  0  0  0  0  0  0  0  0  0
   -4.1761    6.2272   -0.9032 S   0  0  0  0  0  0  0  0  0  0  0  0
   -2.5831    5.6726   -0.2204 C   0  0  0  0  0  0  0  0  0  0  0  0
   -3.1523    1.8548   -0.0926 C   0  0  0  0  0  0  0  0  0  0  0  0
   -4.0531    1.0428   -0.0172 O   0  0  0  0  0  0  0  0  0  0  0  0
    3.2019    5.0154    0.1083 H   0  0  0  0  0  0  0  0  0  0  0  0
    2.1043    6.0936   -0.7868 H   0  0  0  0  0  0  0  0  0  0  0  0
    2.0834    6.0807    0.9930 H   0  0  0  0  0  0  0  0  0  0  0  0
   -0.8598    3.0403   -0.9471 H   0  0  0  0  0  0  0  0  0  0  0  0
   -1.0270    2.9798    0.8239 H   0  0  0  0  0  0  0  0  0  0  0  0
   -5.7187    5.5424   -2.6863 H   0  0  0  0  0  0  0  0  0  0  0  0
   -7.8413    5.8179   -7.5797 H   0  0  0  0  0  0  0  0  0  0  0  0
   -6.4558    8.5984   -3.7116 H   0  0  0  0  0  0  0  0  0  0  0  0
   -8.0463    9.1864   -4.2527 H   0  0  0  0  0  0  0  0  0  0  0  0
   -7.9310    8.0899   -2.8553 H   0  0  0  0  0  0  0  0  0  0  0  0
   -2.4716    6.0716    0.7878 H   0  0  0  0  0  0  0  0  0  0  0  0
   -1.7776    6.0588   -0.8450 H   0  0  0  0  0  0  0  0  0  0  0  0
   -1.8694    1.4424   -0.0683 O   0  0  0  0  0  1  0  0  0  0  0  0
  1  2  1  0  0  0  0
  1 29  1  0  0  0  0
  1 30  1  0  0  0  0
  1 31  1  0  0  0  0
  2  3  2  0  0  0  0
  2  4  1  0  0  0  0
  4  5  1  0  0  0  0
  5  6  1  0  0  0  0
  5 32  1  0  0  0  0
  5 33  1  0  0  0  0
  6 26  1  0  0  0  0
  6  7  2  0  0  0  0
  7  8  1  0  0  0  0
  7 27  1  0  0  0  0
  8 13  1  0  0  0  0
  8  9  1  0  0  0  0
  9 10  1  1  0  0  0
  9 11  1  0  0  0  0
  9 25  1  0  0  0  0
 11 12  1  1  0  0  0
 11 13  1  0  0  0  0
 11 15  1  0  0  0  0
 13 14  2  0  0  0  0
 15 16  1  0  0  0  0
 15 34  1  0  0  0  0
 16 17  2  0  0  0  0
 16 18  1  0  0  0  0
 18 22  1  0  0  0  0
 18 19  2  0  0  0  0
 19 20  1  0  0  0  0
 19 24  1  0  0  0  0
 20 21  2  0  0  0  0
 20 35  1  0  0  0  0
 21 22  1  0  0  0  0
 22 23  1  0  0  0  0
 23 36  1  0  0  0  0
 23 37  1  0  0  0  0
 23 38  1  0  0  0  0
 25 26  1  0  0  0  0
 26 39  1  0  0  0  0
 26 40  1  0  0  0  0
 27 28  2  0  0  0  0
 27 41  1  0  0  0  0
M  END
$$$$
ZINC40053769
 OpenBabel01252620473D

 62 64  0  0  1  0  0  0  0  0999 V2000
   -4.4206   -1.5137   -1.8954 C   0  0  0  0  0  0  0  0  0  0  0  0
   -3.2153   -2.2725   -1.4031 C   0  0  0  0  0  0  0  0  0  0  0  0
   -2.0856   -2.3616   -2.1973 C   0  0  0  0  0  0  0  0  0  0  0  0
   -0.9789   -3.0544   -1.7533 C   0  0  0  0  0  0  0  0  0  0  0  0
   -0.9986   -3.6677   -0.4986 C   0  0  0  0  0  0  0  0  0  0  0  0
   -2.1404   -3.5753    0.2992 C   0  0  0  0  0  0  0  0  0  0  0  0
   -3.2408   -2.8735   -0.1546 C   0  0  0  0  0  0  0  0  0  0  0  0
   -4.3452   -2.7777    0.6176 F   0  0  0  0  0  0  0  0  0  0  0  0
    0.1849   -4.4123   -0.0176 C   0  0  0  0  0  0  0  0  0  0  0  0
    1.1548   -4.5455   -0.7400 O   0  0  0  0  0  0  0  0  0  0  0  0
    0.1897   -4.9898    1.3297 C   0  0  0  0  0  0  0  0  0  0  0  0
    0.2727   -6.3037    1.6446 C   0  0  0  0  0  0  0  0  0  0  0  0
    0.2444   -6.4532    3.1150 C   0  0  0  0  0  0  0  0  0  0  0  0
    0.3027   -7.5112    3.7096 O   0  0  0  0  0  0  0  0  0  0  0  0
    0.1452   -5.2446    3.6975 N   0  0  0  0  0  0  0  0  0  0  0  0
    0.1095   -4.2329    2.6349 C   0  0  1  0  0  0  0  0  0  0  0  0
   -0.8236   -3.6719    2.6860 H   0  0  0  0  0  0  0  0  0  0  0  0
    1.2846   -3.2985    2.7649 C   0  0  0  0  0  0  0  0  0  0  0  0
    2.5570   -3.8094    2.9451 C   0  0  0  0  0  0  0  0  0  0  0  0
    3.6370   -2.9549    3.0647 C   0  0  0  0  0  0  0  0  0  0  0  0
    3.4475   -1.5876    3.0050 C   0  0  0  0  0  0  0  0  0  0  0  0
    2.1723   -1.0725    2.8244 C   0  0  0  0  0  0  0  0  0  0  0  0
    1.0907   -1.9326    2.6985 C   0  0  0  0  0  0  0  0  0  0  0  0
    1.9833    0.2720    2.7653 O   0  0  0  0  0  0  0  0  0  0  0  0
    3.1430    1.0965    2.8965 C   0  0  0  0  0  0  0  0  0  0  0  0
    2.7353    2.5683    2.8054 C   0  0  0  0  0  0  0  0  0  0  0  0
    3.9770    3.4512    2.9460 C   0  0  0  0  0  0  0  0  0  0  0  0
    3.5887    4.9154    2.7308 C   0  0  0  0  0  0  0  0  0  0  0  0
    4.5679    3.2808    4.3470 C   0  0  0  0  0  0  0  0  0  0  0  0
    0.0893   -4.9839    5.1381 C   0  0  0  0  0  0  0  0  0  0  0  0
    1.5084   -4.7927    5.6772 C   0  0  0  0  0  0  0  0  0  0  0  0
    1.4500   -4.5204    7.1817 C   0  0  0  0  0  0  0  0  0  0  0  0
    2.7754   -4.3418    7.6852 O   0  0  0  0  0  0  0  0  0  0  0  0
    0.3658   -7.3187    0.7551 O   0  5  0  0  0  0  0  0  0  0  0  0
   -4.3415   -0.4697   -1.5921 H   0  0  0  0  0  0  0  0  0  0  0  0
   -4.4685   -1.5735   -2.9827 H   0  0  0  0  0  0  0  0  0  0  0  0
   -5.3237   -1.9489   -1.4674 H   0  0  0  0  0  0  0  0  0  0  0  0
   -2.0707   -1.8876   -3.1676 H   0  0  0  0  0  0  0  0  0  0  0  0
   -0.0984   -3.1229   -2.3750 H   0  0  0  0  0  0  0  0  0  0  0  0
   -2.1622   -4.0476    1.2703 H   0  0  0  0  0  0  0  0  0  0  0  0
    2.7071   -4.8779    2.9927 H   0  0  0  0  0  0  0  0  0  0  0  0
    4.6297   -3.3563    3.2053 H   0  0  0  0  0  0  0  0  0  0  0  0
    4.2915   -0.9203    3.0992 H   0  0  0  0  0  0  0  0  0  0  0  0
    0.0975   -1.5341    2.5530 H   0  0  0  0  0  0  0  0  0  0  0  0
    3.6147    0.9092    3.8612 H   0  0  0  0  0  0  0  0  0  0  0  0
    3.8464    0.8642    2.0969 H   0  0  0  0  0  0  0  0  0  0  0  0
    2.2636    2.7557    1.8408 H   0  0  0  0  0  0  0  0  0  0  0  0
    2.0319    2.8007    3.6050 H   0  0  0  0  0  0  0  0  0  0  0  0
    4.7172    3.1583    2.2014 H   0  0  0  0  0  0  0  0  0  0  0  0
    2.8485    5.2082    3.4755 H   0  0  0  0  0  0  0  0  0  0  0  0
    4.4733    5.5443    2.8310 H   0  0  0  0  0  0  0  0  0  0  0  0
    3.1677    5.0367    1.7328 H   0  0  0  0  0  0  0  0  0  0  0  0
    4.8445    2.2377    4.5003 H   0  0  0  0  0  0  0  0  0  0  0  0
    5.4525    3.9098    4.4471 H   0  0  0  0  0  0  0  0  0  0  0  0
    3.8277    3.5737    5.0916 H   0  0  0  0  0  0  0  0  0  0  0  0
   -0.4938   -4.0814    5.3217 H   0  0  0  0  0  0  0  0  0  0  0  0
   -0.3801   -5.8286    5.6422 H   0  0  0  0  0  0  0  0  0  0  0  0
    2.0915   -5.6951    5.4936 H   0  0  0  0  0  0  0  0  0  0  0  0
    1.9778   -3.9479    5.1731 H   0  0  0  0  0  0  0  0  0  0  0  0
    0.8669   -3.6180    7.3652 H   0  0  0  0  0  0  0  0  0  0  0  0
    0.9806   -5.3651    7.6858 H   0  0  0  0  0  0  0  0  0  0  0  0
    2.8147   -4.1650    8.6351 H   0  0  0  0  0  0  0  0  0  0  0  0
  1  2  1  0  0  0  0
  1 35  1  0  0  0  0
  1 36  1  0  0  0  0
  1 37  1  0  0  0  0
  2  7  2  0  0  0  0
  2  3  1  0  0  0  0
  3  4  2  0  0  0  0
  3 38  1  0  0  0  0
  4  5  1  0  0  0  0
  4 39  1  0  0  0  0
  5  6  2  0  0  0  0
  5  9  1  0  0  0  0
  6  7  1  0  0  0  0
  6 40  1  0  0  0  0
  7  8  1  0  0  0  0
  9 10  2  0  0  0  0
  9 11  1  0  0  0  0
 11 16  1  0  0  0  0
 11 12  2  0  0  0  0
 12 13  1  0  0  0  0
 12 34  1  0  0  0  0
 13 14  2  0  0  0  0
 13 15  1  0  0  0  0
 15 16  1  0  0  0  0
 15 30  1  0  0  0  0
 16 17  1  1  0  0  0
 16 18  1  0  0  0  0
 18 23  2  0  0  0  0
 18 19  1  0  0  0  0
 19 20  2  0  0  0  0
 19 41  1  0  0  0  0
 20 21  1  0  0  0  0
 20 42  1  0  0  0  0
 21 22  2  0  0  0  0
 21 43  1  0  0  0  0
 22 23  1  0  0  0  0
 22 24  1  0  0  0  0
 23 44  1  0  0  0  0
 24 25  1  0  0  0  0
 25 26  1  0  0  0  0
 25 45  1  0  0  0  0
 25 46  1  0  0  0  0
 26 27  1  0  0  0  0
 26 47  1  0  0  0  0
 26 48  1  0  0  0  0
 27 28  1  0  0  0  0
 27 29  1  0  0  0  0
 27 49  1  0  0  0  0
 28 50  1  0  0  0  0
 28 51  1  0  0  0  0
 28 52  1  0  0  0  0
 29 53  1  0  0  0  0
 29 54  1  0  0  0  0
 29 55  1  0  0  0  0
 30 31  1  0  0  0  0
 30 56  1  0  0  0  0
 30 57  1  0  0  0  0
 31 32  1  0  0  0  0
 31 58  1  0  0  0  0
 31 59  1  0  0  0  0
 32 33  1  0  0  0  0
 32 60  1  0  0  0  0
 32 61  1  0  0  0  0
 33 62  1  0  0  0  0
M  CHG  1  34  -1
M  END
$$$$
ZINC09350069
 OpenBabel01252620473D

 56 58  0  0  1  0  0  0  0  0999 V2000
    0.3626    2.4311   -8.5751 C   0  0  0  0  0  0  0  0  0  0  0  0
    0.6636    1.2308   -7.8603 O   0  0  0  0  0  0  0  0  0  0  0  0
   -0.1012    1.0584   -6.6656 C   0  0  0  0  0  0  0  0  0  0  0  0
    0.3022   -0.2519   -5.9864 C   0  0  0  0  0  0  0  0  0  0  0  0
    1.6963   -0.1639   -5.5448 N   0  0  0  0  0  0  0  0  0  0  0  0
    2.1598    0.3195   -4.2389 C   0  0  2  0  0  0  0  0  0  0  0  0
    1.8155    1.3514   -4.0758 H   0  0  0  0  0  0  0  0  0  0  0  0
    3.6670    0.2176   -4.2627 C   0  0  0  0  0  0  0  0  0  0  0  0
    4.0058   -0.2786   -5.4753 C   0  0  0  0  0  0  0  0  0  0  0  0
    2.7783   -0.5125   -6.2645 C   0  0  0  0  0  0  0  0  0  0  0  0
    2.7504   -0.9540   -7.3961 O   0  0  0  0  0  0  0  0  0  0  0  0
    5.2679   -0.5215   -5.8982 O   0  5  0  0  0  0  0  0  0  0  0  0
    4.5856    0.5850   -3.1804 C   0  0  0  0  0  0  0  0  0  0  0  0
    5.2341   -0.2754   -2.6143 O   0  0  0  0  0  0  0  0  0  0  0  0
    4.7238    1.9983   -2.7775 C   0  0  0  0  0  0  0  0  0  0  0  0
    3.9237    2.9784   -3.3727 C   0  0  0  0  0  0  0  0  0  0  0  0
    4.0524    4.2946   -2.9906 C   0  0  0  0  0  0  0  0  0  0  0  0
    4.9839    4.6515   -2.0218 C   0  0  0  0  0  0  0  0  0  0  0  0
    5.7852    3.6806   -1.4312 C   0  0  0  0  0  0  0  0  0  0  0  0
    5.6592    2.3614   -1.8037 C   0  0  0  0  0  0  0  0  0  0  0  0
    5.1116    5.9508   -1.6521 O   0  0  0  0  0  0  0  0  0  0  0  0
    4.1844    6.8801   -2.2167 C   0  0  0  0  0  0  0  0  0  0  0  0
    4.5468    8.2773   -1.7837 C   0  0  0  0  0  0  0  0  0  0  0  0
    4.5547    9.2527   -2.6581 C   0  0  0  0  0  0  0  0  0  0  0  0
    1.5994   -0.5438   -3.1381 C   0  0  0  0  0  0  0  0  0  0  0  0
    1.5798   -1.9186   -3.2821 C   0  0  0  0  0  0  0  0  0  0  0  0
    1.0663   -2.7149   -2.2753 C   0  0  0  0  0  0  0  0  0  0  0  0
    0.5702   -2.1353   -1.1186 C   0  0  0  0  0  0  0  0  0  0  0  0
    0.5904   -0.7515   -0.9735 C   0  0  0  0  0  0  0  0  0  0  0  0
    1.1012    0.0412   -1.9889 C   0  0  0  0  0  0  0  0  0  0  0  0
    0.1047   -0.1779    0.1599 O   0  0  0  0  0  0  0  0  0  0  0  0
    0.0497    1.2496    0.1923 C   0  0  0  0  0  0  0  0  0  0  0  0
    0.0644   -2.9171   -0.1275 O   0  0  0  0  0  0  0  0  0  0  0  0
    0.9903    2.4881   -9.4767 H   0  0  0  0  0  0  0  0  0  0  0  0
    0.5640    3.3008   -7.9325 H   0  0  0  0  0  0  0  0  0  0  0  0
   -0.6981    2.4282   -8.8664 H   0  0  0  0  0  0  0  0  0  0  0  0
    0.0905    1.8994   -5.9830 H   0  0  0  0  0  0  0  0  0  0  0  0
   -1.1717    1.0268   -6.9168 H   0  0  0  0  0  0  0  0  0  0  0  0
   -0.3475   -0.4292   -5.1166 H   0  0  0  0  0  0  0  0  0  0  0  0
    0.1951   -1.0826   -6.6994 H   0  0  0  0  0  0  0  0  0  0  0  0
    3.2028    2.7026   -4.1281 H   0  0  0  0  0  0  0  0  0  0  0  0
    3.4319    5.0517   -3.4468 H   0  0  0  0  0  0  0  0  0  0  0  0
    6.5078    3.9620   -0.6794 H   0  0  0  0  0  0  0  0  0  0  0  0
    6.2823    1.6080   -1.3448 H   0  0  0  0  0  0  0  0  0  0  0  0
    4.2222    6.8149   -3.3141 H   0  0  0  0  0  0  0  0  0  0  0  0
    3.1683    6.6408   -1.8700 H   0  0  0  0  0  0  0  0  0  0  0  0
    4.8047    8.4781   -0.7334 H   0  0  0  0  0  0  0  0  0  0  0  0
    4.8192   10.2726   -2.3420 H   0  0  0  0  0  0  0  0  0  0  0  0
    4.2968    9.0519   -3.7084 H   0  0  0  0  0  0  0  0  0  0  0  0
    1.9661   -2.3716   -4.1831 H   0  0  0  0  0  0  0  0  0  0  0  0
    1.0522   -3.7886   -2.3903 H   0  0  0  0  0  0  0  0  0  0  0  0
    1.1135    1.1157   -1.8808 H   0  0  0  0  0  0  0  0  0  0  0  0
   -0.3598    1.5789    1.1587 H   0  0  0  0  0  0  0  0  0  0  0  0
   -0.5963    1.6102   -0.6217 H   0  0  0  0  0  0  0  0  0  0  0  0
    1.0629    1.6585    0.0649 H   0  0  0  0  0  0  0  0  0  0  0  0
   -0.3291   -2.4557    0.7903 H   0  0  0  0  0  0  0  0  0  0  0  0
  1  2  1  0  0  0  0
  1 34  1  0  0  0  0
  1 35  1  0  0  0  0
  1 36  1  0  0  0  0
  2  3  1  0  0  0  0
  3  4  1  0  0  0  0
  3 37  1  0  0  0  0
  3 38  1  0  0  0  0
  4  5  1  0  0  0  0
  4 39  1  0  0  0  0
  4 40  1  0  0  0  0
  5 10  1  0  0  0  0
  5  6  1  0  0  0  0
  6  7  1  1  0  0  0
  6  8  1  0  0  0  0
  6 25  1  0  0  0  0
  8  9  2  0  0  0  0
  8 13  1  0  0  0  0
  9 10  1  0  0  0  0
  9 12  1  0  0  0  0
 10 11  2  0  0  0  0
 13 14  2  0  0  0  0
 13 15  1  0  0  0  0
 15 20  2  0  0  0  0
 15 16  1  0  0  0  0
 16 17  2  0  0  0  0
 16 41  1  0  0  0  0
 17 18  1  0  0  0  0
 17 42  1  0  0  0  0
 18 19  2  0  0  0  0
 18 21  1  0  0  0  0
 19 20  1  0  0  0  0
 19 43  1  0  0  0  0
 20 44  1  0  0  0  0
 21 22  1  0  0  0  0
 22 23  1  0  0  0  0
 22 45  1  0  0  0  0
 22 46  1  0  0  0  0
 23 24  2  0  0  0  0
 23 47  1  0  0  0  0
 24 48  1  0  0  0  0
 24 49  1  0  0  0  0
 25 30  2  0  0  0  0
 25 26  1  0  0  0  0
 26 27  2  0  0  0  0
 26 50  1  0  0  0  0
 27 28  1  0  0  0  0
 27 51  1  0  0  0  0
 28 29  2  0  0  0  0
 28 33  1  0  0  0  0
 29 30  1  0  0  0  0
 29 31  1  0  0  0  0
 30 52  1  0  0  0  0
 31 32  1  0  0  0  0
 32 53  1  0  0  0  0
 32 54  1  0  0  0  0
 32 55  1  0  0  0  0
 33 56  1  0  0  0  0
M  CHG  1  12  -1
M  END
$$$$
ZINC19204026
 OpenBabel01252620473D

 29 30  0  0  0  0  0  0  0  0999 V2000
   -0.0168    1.3849    0.0097 C   0  0  0  0  0  0  0  0  0  0  0  0
    1.1707    2.0901    0.0021 C   0  0  0  0  0  0  0  0  0  0  0  0
    2.3774    1.4150   -0.0135 C   0  0  0  0  0  0  0  0  0  0  0  0
    2.3998    0.0323   -0.0211 C   0  0  0  0  0  0  0  0  0  0  0  0
    1.2161   -0.6790   -0.0137 C   0  0  0  0  0  0  0  0  0  0  0  0
    0.0021   -0.0041    0.0020 C   0  0  0  0  0  0  0  0  0  0  0  0
   -1.1970   -0.7204    0.0101 N   0  0  0  0  0  0  0  0  0  0  0  0
    3.8900    2.3186   -0.0243 S   0  0  0  0  0  0  0  0  0  0  0  0
    4.8717    1.4606   -0.5894 O   0  0  0  0  0  0  0  0  0  0  0  0
    3.5945    3.5988   -0.5657 O   0  0  0  0  0  0  0  0  0  0  0  0
    4.3264    2.5618    1.5546 N   0  0  0  0  0  0  0  0  0  0  0  0
    5.4306    3.2183    1.8383 C   0  0  0  0  0  0  0  0  0  0  0  0
    6.2161    3.7055    0.8177 N   0  0  0  0  0  0  0  0  0  0  0  0
    7.3643    4.3886    1.1115 C   0  0  0  0  0  0  0  0  0  0  0  0
    8.1446    4.8727    0.1210 O   0  5  0  0  0  0  0  0  0  0  0  0
    7.7114    4.5753    2.4186 C   0  0  0  0  0  0  0  0  0  0  0  0
    6.8863    4.0646    3.4291 C   0  0  0  0  0  0  0  0  0  0  0  0
    7.2207    4.2438    4.7275 O   0  5  0  0  0  0  0  0  0  0  0  0
    5.7780    3.4116    3.1175 N   0  0  0  0  0  0  0  0  0  0  0  0
    8.9487    5.3105    2.7652 N   0  0  0  0  0  4  0  0  0  0  0  0
    9.6571    5.7486    1.8888 O   0  0  0  0  0  0  0  0  0  0  0  0
    9.2509    5.4727    3.9245 O   0  5  0  0  0  0  0  0  0  0  0  0
   -0.9589    1.9127    0.0260 H   0  0  0  0  0  0  0  0  0  0  0  0
    1.1567    3.1700    0.0080 H   0  0  0  0  0  0  0  0  0  0  0  0
    3.3440   -0.4918   -0.0333 H   0  0  0  0  0  0  0  0  0  0  0  0
    1.2342   -1.7588   -0.0200 H   0  0  0  0  0  0  0  0  0  0  0  0
   -2.0441   -0.2480    0.0210 H   0  0  0  0  0  0  0  0  0  0  0  0
   -1.1825   -1.6903    0.0047 H   0  0  0  0  0  0  0  0  0  0  0  0
    5.9564    3.5645   -0.1062 H   0  0  0  0  0  0  0  0  0  0  0  0
  1  6  2  0  0  0  0
  1  2  1  0  0  0  0
  1 23  1  0  0  0  0
  2  3  2  0  0  0  0
  2 24  1  0  0  0  0
  3  4  1  0  0  0  0
  3  8  1  0  0  0  0
  4  5  2  0  0  0  0
  4 25  1  0  0  0  0
  5  6  1  0  0  0  0
  5 26  1  0  0  0  0
  6  7  1  0  0  0  0
  7 27  1  0  0  0  0
  7 28  1  0  0  0  0
  8  9  2  0  0  0  0
  8 10  2  0  0  0  0
  8 11  1  0  0  0  0
 11 12  2  0  0  0  0
 12 19  1  0  0  0  0
 12 13  1  0  0  0  0
 13 14  1  0  0  0  0
 13 29  1  0  0  0  0
 14 15  1  0  0  0  0
 14 16  2  0  0  0  0
 16 17  1  0  0  0  0
 16 20  1  0  0  0  0
 17 18  1  0  0  0  0
 17 19  2  0  0  0  0
 20 21  2  0  0  0  0
 20 22  1  0  0  0  0
M  CHG  3  15  -1  18  -1  22  -1
M  END
$$$$
ZINC35653029
 OpenBabel01252620473D

 59 62  0  0  1  0  0  0  0  0999 V2000
    0.8019   -0.4723    0.9343 C   0  0  0  0  0  0  0  0  0  0  0  0
    0.0270    0.0661   -0.2701 C   0  0  2  0  0  0  0  0  0  0  0  0
    0.0173    1.1556   -0.2384 H   0  0  0  0  0  0  0  0  0  0  0  0
   -1.4074   -0.4573   -0.2280 C   0  0  1  0  0  0  0  0  0  0  0  0
   -2.1485   -0.1155   -1.5485 C   0  0  0  0  0  0  0  0  0  0  0  0
   -2.7010   -1.4639   -2.0993 C   0  0  0  0  0  0  0  0  0  0  0  0
   -2.7743   -2.3081   -0.8173 C   0  0  2  0  0  0  0  0  0  0  0  0
   -3.5736   -1.8713   -0.1771 H   0  0  0  0  0  0  0  0  0  0  0  0
   -1.4050   -1.9942   -0.1820 C   0  0  2  0  0  0  0  0  0  0  0  0
   -1.3282   -2.6312    1.1842 C   0  0  0  0  0  0  0  0  0  0  0  0
   -1.4890   -4.1575    1.0135 C   0  0  0  0  0  0  0  0  0  0  0  0
   -2.8191   -4.4842    0.3626 C   0  0  1  0  0  0  0  0  0  0  0  0
   -3.5844   -4.0491    1.0445 H   0  0  0  0  0  0  0  0  0  0  0  0
   -3.0388   -3.7829   -0.9717 C   0  0  2  0  0  0  0  0  0  0  0  0
   -4.1396   -3.8817   -1.1796 H   0  0  0  0  0  0  0  0  0  0  0  0
   -2.3480   -4.3939   -2.1679 C   0  0  0  0  0  0  0  0  0  0  0  0
   -1.8137   -5.7965   -1.8978 C   0  0  0  0  0  0  0  0  0  0  0  0
   -2.8290   -6.5221   -1.0529 C   0  0  0  0  0  0  0  0  0  0  0  0
   -3.4324   -7.6169   -1.4992 C   0  0  0  0  0  0  0  0  0  0  0  0
   -4.4415   -8.3008   -0.6949 C   0  0  0  0  0  0  0  0  0  0  0  0
   -4.8619   -9.3849   -1.0502 O   0  0  0  0  0  0  0  0  0  0  0  0
   -4.9776   -7.6665    0.5616 C   0  0  0  0  0  0  0  0  0  0  0  0
   -4.6356   -6.1777    0.5923 C   0  0  0  0  0  0  0  0  0  0  0  0
   -3.1416   -5.9684    0.3152 C   0  0  2  0  0  0  0  0  0  0  0  0
   -2.3306   -6.7429    1.3566 C   0  0  0  0  0  0  0  0  0  0  0  0
   -0.2161   -2.4586   -1.0239 C   0  0  0  0  0  0  0  0  0  0  0  0
   -2.1094    0.0702    0.8943 O   0  0  0  0  0  0  0  0  0  0  0  0
    0.6579   -0.3697   -1.4760 O   0  0  0  0  0  0  0  0  0  0  0  0
    1.5909    0.6616   -2.0942 S   0  0  0  0  0  0  0  0  0  0  0  0
    1.8948    0.2029   -3.4408 O   0  0  0  0  0  0  0  0  0  0  0  0
    0.8759    1.9284   -2.1001 O   0  0  0  0  0  0  0  0  0  0  0  0
    2.7790    0.7123   -1.2564 O   0  0  0  0  0  1  0  0  0  0  0  0
    1.8182   -0.0786    0.9179 H   0  0  0  0  0  0  0  0  0  0  0  0
    0.3064   -0.1609    1.8538 H   0  0  0  0  0  0  0  0  0  0  0  0
    0.8332   -1.5609    0.8890 H   0  0  0  0  0  0  0  0  0  0  0  0
   -2.9720    0.5677   -1.3479 H   0  0  0  0  0  0  0  0  0  0  0  0
   -1.4561    0.3226   -2.2645 H   0  0  0  0  0  0  0  0  0  0  0  0
   -3.7019   -1.3184   -2.5120 H   0  0  0  0  0  0  0  0  0  0  0  0
   -2.0411   -1.8931   -2.8406 H   0  0  0  0  0  0  0  0  0  0  0  0
   -0.3624   -2.4187    1.6450 H   0  0  0  0  0  0  0  0  0  0  0  0
   -2.1286   -2.2533    1.8221 H   0  0  0  0  0  0  0  0  0  0  0  0
   -0.6675   -4.5671    0.4417 H   0  0  0  0  0  0  0  0  0  0  0  0
   -1.4538   -4.5698    2.0304 H   0  0  0  0  0  0  0  0  0  0  0  0
   -3.1053   -4.4949   -2.9702 H   0  0  0  0  0  0  0  0  0  0  0  0
   -1.5693   -3.7723   -2.5751 H   0  0  0  0  0  0  0  0  0  0  0  0
   -1.6802   -6.3215   -2.8425 H   0  0  0  0  0  0  0  0  0  0  0  0
   -0.8654   -5.7354   -1.3705 H   0  0  0  0  0  0  0  0  0  0  0  0
   -3.1726   -8.0079   -2.4720 H   0  0  0  0  0  0  0  0  0  0  0  0
   -6.0696   -7.7797    0.5726 H   0  0  0  0  0  0  0  0  0  0  0  0
   -4.5786   -8.1736    1.4376 H   0  0  0  0  0  0  0  0  0  0  0  0
   -5.2169   -5.6523   -0.1680 H   0  0  0  0  0  0  0  0  0  0  0  0
   -4.8795   -5.7661    1.5733 H   0  0  0  0  0  0  0  0  0  0  0  0
   -2.5650   -6.3671    2.3526 H   0  0  0  0  0  0  0  0  0  0  0  0
   -2.5824   -7.8018    1.2991 H   0  0  0  0  0  0  0  0  0  0  0  0
   -1.2666   -6.6112    1.1598 H   0  0  0  0  0  0  0  0  0  0  0  0
    0.7120   -2.1459   -0.5454 H   0  0  0  0  0  0  0  0  0  0  0  0
   -0.2332   -3.5451   -1.1085 H   0  0  0  0  0  0  0  0  0  0  0  0
   -0.2797   -2.0156   -2.0178 H   0  0  0  0  0  0  0  0  0  0  0  0
   -2.1625    1.0356    0.9066 H   0  0  0  0  0  0  0  0  0  0  0  0
  1  2  1  0  0  0  0
  1 33  1  0  0  0  0
  1 34  1  0  0  0  0
  1 35  1  0  0  0  0
  2  3  1  1  0  0  0
  2  4  1  0  0  0  0
  2 28  1  0  0  0  0
  4  9  1  0  0  0  0
  4  5  1  0  0  0  0
  4 27  1  1  0  0  0
  5  6  1  0  0  0  0
  5 36  1  0  0  0  0
  5 37  1  0  0  0  0
  6  7  1  0  0  0  0
  6 38  1  0  0  0  0
  6 39  1  0  0  0  0
  7  8  1  1  0  0  0
  7 14  1  0  0  0  0
  7  9  1  0  0  0  0
  9 10  1  0  0  0  0
  9 26  1  6  0  0  0
 10 11  1  0  0  0  0
 10 40  1  0  0  0  0
 10 41  1  0  0  0  0
 11 12  1  0  0  0  0
 11 42  1  0  0  0  0
 11 43  1  0  0  0  0
 12 13  1  1  0  0  0
 12 24  1  0  0  0  0
 12 14  1  0  0  0  0
 14 15  1  6  0  0  0
 14 16  1  0  0  0  0
 16 17  1  0  0  0  0
 16 44  1  0  0  0  0
 16 45  1  0  0  0  0
 17 18  1  0  0  0  0
 17 46  1  0  0  0  0
 17 47  1  0  0  0  0
 18 24  1  0  0  0  0
 18 19  2  0  0  0  0
 19 20  1  0  0  0  0
 19 48  1  0  0  0  0
 20 21  2  0  0  0  0
 20 22  1  0  0  0  0
 22 23  1  0  0  0  0
 22 49  1  0  0  0  0
 22 50  1  0  0  0  0
 23 24  1  0  0  0  0
 23 51  1  0  0  0  0
 23 52  1  0  0  0  0
 24 25  1  1  0  0  0
 25 53  1  0  0  0  0
 25 54  1  0  0  0  0
 25 55  1  0  0  0  0
 26 56  1  0  0  0  0
 26 57  1  0  0  0  0
 26 58  1  0  0  0  0
 27 59  1  0  0  0  0
 28 29  1  0  0  0  0
 29 30  2  0  0  0  0
 29 31  2  0  0  0  0
 29 32  1  0  0  0  0
M  END
$$$$
ZINC33766356
 OpenBabel01252620473D

 50 53  0  0  1  0  0  0  0  0999 V2000
   -3.3982    6.0486    0.3444 C   0  0  0  0  0  0  0  0  0  0  0  0
   -2.2057    6.3445    1.2170 C   0  0  0  0  0  0  0  0  0  0  0  0
   -0.9488    5.8387    0.9109 C   0  0  0  0  0  0  0  0  0  0  0  0
    0.0133    6.5142    2.2570 S   0  0  0  0  0  0  0  0  0  0  0  0
   -1.2775    7.3538    3.0596 C   0  0  0  0  0  0  0  0  0  0  0  0
   -2.3200    7.0825    2.2894 N   0  0  0  0  0  0  0  0  0  0  0  0
   -1.2290    8.1145    4.2125 N   0  0  0  0  0  0  0  0  0  0  0  0
   -0.0282    8.3692    5.0135 C   0  0  2  0  0  0  0  0  0  0  0  0
    0.3977    7.4144    5.3556 H   0  0  0  0  0  0  0  0  0  0  0  0
   -0.4561    9.2437    6.1694 C   0  0  0  0  0  0  0  0  0  0  0  0
    0.3436    9.7318    7.1783 C   0  0  0  0  0  0  0  0  0  0  0  0
    1.7499    9.2947    7.2824 C   0  0  0  0  0  0  0  0  0  0  0  0
    2.0880    7.9362    7.2290 C   0  0  0  0  0  0  0  0  0  0  0  0
    3.4165    7.5736    7.3253 C   0  0  0  0  0  0  0  0  0  0  0  0
    4.3582    8.4841    7.4760 N   0  0  0  0  0  0  0  0  0  0  0  0
    4.0842    9.7725    7.5366 C   0  0  0  0  0  0  0  0  0  0  0  0
    2.7838   10.2263    7.4432 C   0  0  0  0  0  0  0  0  0  0  0  0
   -0.1583   10.6099    8.0724 O   0  0  0  0  0  0  0  0  0  0  0  0
   -1.8376    9.4582    6.0058 C   0  0  0  0  0  0  0  0  0  0  0  0
   -2.5511   10.1135    6.7426 O   0  5  0  0  0  0  0  0  0  0  0  0
   -2.2736    8.7444    4.7755 C   0  0  0  0  0  0  0  0  0  0  0  0
   -3.4086    8.7300    4.3450 O   0  0  0  0  0  0  0  0  0  0  0  0
    1.0057    9.0824    4.1808 C   0  0  0  0  0  0  0  0  0  0  0  0
    2.3227    8.6482    4.1735 C   0  0  0  0  0  0  0  0  0  0  0  0
    3.2386    9.3320    3.3891 C   0  0  0  0  0  0  0  0  0  0  0  0
    2.8139   10.4228    2.6538 C   0  0  0  0  0  0  0  0  0  0  0  0
    1.5541   10.8106    2.6889 N   0  0  0  0  0  0  0  0  0  0  0  0
    0.6546   10.1808    3.4194 C   0  0  0  0  0  0  0  0  0  0  0  0
   -0.5286    4.9939   -0.2054 C   0  0  0  0  0  0  0  0  0  0  0  0
   -1.3426    4.6309   -1.0335 O   0  0  0  0  0  0  0  0  0  0  0  0
    0.7621    4.6169   -0.3175 O   0  0  0  0  0  0  0  0  0  0  0  0
    1.1022    3.7912   -1.4333 C   0  0  0  0  0  0  0  0  0  0  0  0
    2.5747    3.4736   -1.3927 C   0  0  0  0  0  0  0  0  0  0  0  0
    2.9869    2.2492   -1.6094 C   0  0  0  0  0  0  0  0  0  0  0  0
   -3.0868    5.4154   -0.4995 H   0  0  0  0  0  0  0  0  0  0  0  0
   -3.8150    6.9916   -0.0390 H   0  0  0  0  0  0  0  0  0  0  0  0
   -4.1630    5.5227    0.9347 H   0  0  0  0  0  0  0  0  0  0  0  0
    1.3215    7.1846    7.1104 H   0  0  0  0  0  0  0  0  0  0  0  0
    3.6879    6.5292    7.2808 H   0  0  0  0  0  0  0  0  0  0  0  0
    4.8883   10.4826    7.6607 H   0  0  0  0  0  0  0  0  0  0  0  0
    2.5668   11.2831    7.4937 H   0  0  0  0  0  0  0  0  0  0  0  0
    2.6269    7.7951    4.7619 H   0  0  0  0  0  0  0  0  0  0  0  0
    4.2717    9.0194    3.3565 H   0  0  0  0  0  0  0  0  0  0  0  0
    3.5219   10.9634    2.0434 H   0  0  0  0  0  0  0  0  0  0  0  0
   -0.3681   10.5277    3.4229 H   0  0  0  0  0  0  0  0  0  0  0  0
    0.5240    2.8565   -1.3874 H   0  0  0  0  0  0  0  0  0  0  0  0
    0.8672    4.3223   -2.3675 H   0  0  0  0  0  0  0  0  0  0  0  0
    3.3035    4.2699   -1.1812 H   0  0  0  0  0  0  0  0  0  0  0  0
    4.0618    2.0174   -1.5798 H   0  0  0  0  0  0  0  0  0  0  0  0
    2.2581    1.4529   -1.8210 H   0  0  0  0  0  0  0  0  0  0  0  0
  1  2  1  0  0  0  0
  1 35  1  0  0  0  0
  1 36  1  0  0  0  0
  1 37  1  0  0  0  0
  2  6  1  0  0  0  0
  2  3  2  0  0  0  0
  3  4  1  0  0  0  0
  3 29  1  0  0  0  0
  4  5  1  0  0  0  0
  5  6  2  0  0  0  0
  5  7  1  0  0  0  0
  7 21  1  0  0  0  0
  7  8  1  0  0  0  0
  8 10  1  0  0  0  0
  8 23  1  0  0  0  0
  8  9  1  1  0  0  0
 10 19  2  0  0  0  0
 10 11  1  0  0  0  0
 11 18  2  0  0  0  0
 11 12  1  0  0  0  0
 12 17  2  0  0  0  0
 12 13  1  0  0  0  0
 13 14  2  0  0  0  0
 13 38  1  0  0  0  0
 14 15  1  0  0  0  0
 14 39  1  0  0  0  0
 15 16  2  0  0  0  0
 16 17  1  0  0  0  0
 16 40  1  0  0  0  0
 17 41  1  0  0  0  0
 19 21  1  0  0  0  0
 19 20  1  0  0  0  0
 21 22  2  0  0  0  0
 23 28  2  0  0  0  0
 23 24  1  0  0  0  0
 24 25  2  0  0  0  0
 24 42  1  0  0  0  0
 25 26  1  0  0  0  0
 25 43  1  0  0  0  0
 26 27  2  0  0  0  0
 26 44  1  0  0  0  0
 27 28  1  0  0  0  0
 28 45  1  0  0  0  0
 29 30  2  0  0  0  0
 29 31  1  0  0  0  0
 31 32  1  0  0  0  0
 32 33  1  0  0  0  0
 32 46  1  0  0  0  0
 32 47  1  0  0  0  0
 33 34  2  0  0  0  0
 33 48  1  0  0  0  0
 34 49  1  0  0  0  0
 34 50  1  0  0  0  0
M  CHG  1  20  -1
M  END
$$$$
ZINC63448081
 OpenBabel01252620473D

 59 63  0  0  1  0  0  0  0  0999 V2000
   -0.0187    1.5258    0.0104 C   0  0  0  0  0  0  0  0  0  0  0  0
    0.0021   -0.0041    0.0020 C   0  0  0  0  0  0  0  0  0  0  0  0
    0.7379   -0.5012   -1.2446 C   0  0  0  0  0  0  0  0  0  0  0  0
    2.1734   -0.0376   -1.2008 C   0  0  0  0  0  0  0  0  0  0  0  0
    2.8011    0.1941    0.0280 C   0  0  0  0  0  0  0  0  0  0  0  0
    4.2240    0.7117    0.0576 C   0  0  2  0  0  0  0  0  0  0  0  0
    4.2187    1.8015    0.0354 H   0  0  0  0  0  0  0  0  0  0  0  0
    4.9565    0.1767   -1.1684 C   0  0  1  0  0  0  0  0  0  0  0  0
    5.0918   -0.8976   -1.0426 H   0  0  0  0  0  0  0  0  0  0  0  0
    4.1164    0.4040   -2.3951 C   0  0  0  0  0  0  0  0  0  0  0  0
    4.6567    0.8742   -3.5002 N   0  0  0  0  0  0  0  0  0  0  0  0
    5.9287    1.2686   -3.5546 C   0  0  0  0  0  0  0  0  0  0  0  0
    6.7192    1.2682   -2.4879 N   0  0  0  0  0  0  0  0  0  0  0  0
    6.3057    0.8029   -1.3298 C   0  0  0  0  0  0  0  0  0  0  0  0
    7.0487    0.8781   -0.3701 O   0  0  0  0  0  0  0  0  0  0  0  0
    6.5848    1.8097   -5.0978 S   0  0  0  0  0  0  0  0  0  0  0  0
    8.3048    2.2417   -4.7161 C   0  0  0  0  0  0  0  0  0  0  0  0
    8.9905    2.7266   -5.9674 C   0  0  0  0  0  0  0  0  0  0  0  0
    9.6418    1.8317   -6.8028 C   0  0  0  0  0  0  0  0  0  0  0  0
   10.2588    2.3228   -7.9430 C   0  0  0  0  0  0  0  0  0  0  0  0
   10.2047    3.6785   -8.2072 C   0  0  0  0  0  0  0  0  0  0  0  0
    9.5765    4.5005   -7.3898 N   0  0  0  0  0  0  0  0  0  0  0  0
    8.9733    4.0678   -6.2996 C   0  0  0  0  0  0  0  0  0  0  0  0
    2.8069    0.1847   -2.3371 N   0  0  0  0  0  0  0  0  0  0  0  0
    4.9122    0.2331    1.3099 C   0  0  0  0  0  0  0  0  0  0  0  0
    5.0526   -1.1222    1.5461 C   0  0  0  0  0  0  0  0  0  0  0  0
    5.6834   -1.5645    2.6940 C   0  0  0  0  0  0  0  0  0  0  0  0
    6.1748   -0.6529    3.6085 C   0  0  0  0  0  0  0  0  0  0  0  0
    6.0353    0.7071    3.3739 C   0  0  0  0  0  0  0  0  0  0  0  0
    5.4071    1.1485    2.2181 C   0  0  0  0  0  0  0  0  0  0  0  0
    6.5179    1.6057    4.2719 O   0  0  0  0  0  0  0  0  0  0  0  0
    7.1579    1.0796    5.4362 C   0  0  0  0  0  0  0  0  0  0  0  0
    2.1646   -0.0260    1.2015 C   0  0  0  0  0  0  0  0  0  0  0  0
    2.8174    0.1975    2.3567 O   0  5  0  0  0  0  0  0  0  0  0  0
    0.7425   -0.5154    1.2421 C   0  0  0  0  0  0  0  0  0  0  0  0
   -1.4320   -0.5373    0.0036 C   0  0  0  0  0  0  0  0  0  0  0  0
    1.0039    1.9031    0.0027 H   0  0  0  0  0  0  0  0  0  0  0  0
   -0.5459    1.8868   -0.8726 H   0  0  0  0  0  0  0  0  0  0  0  0
   -0.5289    1.8773    0.9072 H   0  0  0  0  0  0  0  0  0  0  0  0
    0.7087   -1.5905   -1.2734 H   0  0  0  0  0  0  0  0  0  0  0  0
    0.2540   -0.1013   -2.1357 H   0  0  0  0  0  0  0  0  0  0  0  0
    8.3230    3.0297   -3.9632 H   0  0  0  0  0  0  0  0  0  0  0  0
    8.8241    1.3626   -4.3346 H   0  0  0  0  0  0  0  0  0  0  0  0
    9.6680    0.7773   -6.5706 H   0  0  0  0  0  0  0  0  0  0  0  0
   10.7755    1.6547   -8.6160 H   0  0  0  0  0  0  0  0  0  0  0  0
   10.6828    4.0691   -9.0934 H   0  0  0  0  0  0  0  0  0  0  0  0
    8.4641    4.7705   -5.6567 H   0  0  0  0  0  0  0  0  0  0  0  0
    4.6684   -1.8364    0.8328 H   0  0  0  0  0  0  0  0  0  0  0  0
    5.7918   -2.6235    2.8761 H   0  0  0  0  0  0  0  0  0  0  0  0
    6.6669   -0.9989    4.5055 H   0  0  0  0  0  0  0  0  0  0  0  0
    5.3015    2.2069    2.0309 H   0  0  0  0  0  0  0  0  0  0  0  0
    7.4957    1.9013    6.0678 H   0  0  0  0  0  0  0  0  0  0  0  0
    6.4520    0.4615    5.9909 H   0  0  0  0  0  0  0  0  0  0  0  0
    8.0143    0.4747    5.1381 H   0  0  0  0  0  0  0  0  0  0  0  0
    0.2528   -0.1388    2.1402 H   0  0  0  0  0  0  0  0  0  0  0  0
    0.7321   -1.6053    1.2494 H   0  0  0  0  0  0  0  0  0  0  0  0
   -1.9544   -0.1774   -0.8827 H   0  0  0  0  0  0  0  0  0  0  0  0
   -1.4144   -1.6271   -0.0024 H   0  0  0  0  0  0  0  0  0  0  0  0
   -1.9488   -0.1872    0.8972 H   0  0  0  0  0  0  0  0  0  0  0  0
  1  2  1  0  0  0  0
  1 37  1  0  0  0  0
  1 38  1  0  0  0  0
  1 39  1  0  0  0  0
  2 35  1  0  0  0  0
  2  3  1  0  0  0  0
  2 36  1  0  0  0  0
  3  4  1  0  0  0  0
  3 40  1  0  0  0  0
  3 41  1  0  0  0  0
  4 24  2  0  0  0  0
  4  5  1  0  0  0  0
  5  6  1  0  0  0  0
  5 33  2  0  0  0  0
  6  7  1  6  0  0  0
  6  8  1  0  0  0  0
  6 25  1  0  0  0  0
  8  9  1  1  0  0  0
  8 14  1  0  0  0  0
  8 10  1  0  0  0  0
 10 11  2  0  0  0  0
 10 24  1  0  0  0  0
 11 12  1  0  0  0  0
 12 13  2  0  0  0  0
 12 16  1  0  0  0  0
 13 14  1  0  0  0  0
 14 15  2  0  0  0  0
 16 17  1  0  0  0  0
 17 18  1  0  0  0  0
 17 42  1  0  0  0  0
 17 43  1  0  0  0  0
 18 23  2  0  0  0  0
 18 19  1  0  0  0  0
 19 20  2  0  0  0  0
 19 44  1  0  0  0  0
 20 21  1  0  0  0  0
 20 45  1  0  0  0  0
 21 22  2  0  0  0  0
 21 46  1  0  0  0  0
 22 23  1  0  0  0  0
 23 47  1  0  0  0  0
 25 30  2  0  0  0  0
 25 26  1  0  0  0  0
 26 27  2  0  0  0  0
 26 48  1  0  0  0  0
 27 28  1  0  0  0  0
 27 49  1  0  0  0  0
 28 29  2  0  0  0  0
 28 50  1  0  0  0  0
 29 30  1  0  0  0  0
 29 31  1  0  0  0  0
 30 51  1  0  0  0  0
 31 32  1  0  0  0  0
 32 52  1  0  0  0  0
 32 53  1  0  0  0  0
 32 54  1  0  0  0  0
 33 34  1  0  0  0  0
 33 35  1  0  0  0  0
 35 55  1  0  0  0  0
 35 56  1  0  0  0  0
 36 57  1  0  0  0  0
 36 58  1  0  0  0  0
 36 59  1  0  0  0  0
M  CHG  1  34  -1
M  END
$$$$
ZINC39422186
 OpenBabel01252620473D

 57 60  0  0  1  0  0  0  0  0999 V2000
   -1.0581    1.1982   -1.3065 C   0  0  0  0  0  0  0  0  0  0  0  0
   -0.7902   -0.2760   -0.9971 C   0  0  0  0  0  0  0  0  0  0  0  0
   -2.0327   -0.9585   -0.8174 O   0  0  0  0  0  0  0  0  0  0  0  0
   -1.9720   -2.2871   -0.5337 C   0  0  0  0  0  0  0  0  0  0  0  0
   -0.7433   -2.9184   -0.4250 C   0  0  0  0  0  0  0  0  0  0  0  0
   -0.6833   -4.2690   -0.1361 C   0  0  0  0  0  0  0  0  0  0  0  0
   -1.8473   -4.9928    0.0446 C   0  0  0  0  0  0  0  0  0  0  0  0
   -3.0763   -4.3692   -0.0630 C   0  0  0  0  0  0  0  0  0  0  0  0
   -3.1434   -3.0144   -0.3462 C   0  0  0  0  0  0  0  0  0  0  0  0
   -4.3516   -2.3982   -0.4464 O   0  0  0  0  0  0  0  0  0  0  0  0
   -5.5115   -3.2072   -0.2417 C   0  0  0  0  0  0  0  0  0  0  0  0
   -6.7482   -2.3592   -0.3909 C   0  0  0  0  0  0  0  0  0  0  0  0
   -6.6326   -1.0144   -0.6887 C   0  0  0  0  0  0  0  0  0  0  0  0
   -7.7667   -0.2363   -0.8256 C   0  0  0  0  0  0  0  0  0  0  0  0
   -9.0181   -0.8020   -0.6649 C   0  0  0  0  0  0  0  0  0  0  0  0
   -9.1362   -2.1462   -0.3675 C   0  0  0  0  0  0  0  0  0  0  0  0
   -8.0008   -2.9279   -0.2353 C   0  0  0  0  0  0  0  0  0  0  0  0
   -8.1152   -4.2433    0.0508 F   0  0  0  0  0  0  0  0  0  0  0  0
    0.6539   -4.9539   -0.0182 C   0  0  1  0  0  0  0  0  0  0  0  0
    1.4465   -4.2057   -0.0164 H   0  0  0  0  0  0  0  0  0  0  0  0
    0.7035   -5.7414    1.2657 C   0  0  0  0  0  0  0  0  0  0  0  0
    0.1270   -5.3679    2.4836 C   0  0  0  0  0  0  0  0  0  0  0  0
    0.3810   -6.3037    3.3620 N   0  0  0  0  0  0  0  0  0  0  0  0
    1.1292   -7.3071    2.7332 N   0  0  0  0  0  0  0  0  0  0  0  0
    1.3118   -6.9440    1.4444 C   0  0  0  0  0  0  0  0  0  0  0  0
    1.9832   -7.6510    0.4998 O   0  5  0  0  0  0  0  0  0  0  0  0
   -0.6524   -4.1040    2.7406 C   0  0  0  0  0  0  0  0  0  0  0  0
    0.8456   -5.8860   -1.1868 C   0  0  0  0  0  0  0  0  0  0  0  0
    1.8117   -5.8625   -2.1076 C   0  0  0  0  0  0  0  0  0  0  0  0
    1.6479   -6.8634   -3.0008 N   0  0  0  0  0  0  0  0  0  0  0  0
    0.6654   -7.5795   -2.7930 N   0  0  0  0  0  0  0  0  0  0  0  0
   -0.0115   -7.0739   -1.5866 C   0  0  2  0  0  0  0  0  0  0  0  0
   -0.0159   -7.8283   -0.7998 H   0  0  0  0  0  0  0  0  0  0  0  0
   -1.3427   -6.6556   -1.8949 O   0  0  0  0  0  0  0  0  0  0  0  0
    2.9329   -4.8564   -2.1460 C   0  0  0  0  0  0  0  0  0  0  0  0
   -0.1104    1.7188   -1.4436 H   0  0  0  0  0  0  0  0  0  0  0  0
   -1.6507    1.2763   -2.2180 H   0  0  0  0  0  0  0  0  0  0  0  0
   -1.6043    1.6498   -0.4784 H   0  0  0  0  0  0  0  0  0  0  0  0
   -0.2440   -0.7277   -1.8253 H   0  0  0  0  0  0  0  0  0  0  0  0
   -0.1976   -0.3541   -0.0856 H   0  0  0  0  0  0  0  0  0  0  0  0
    0.1675   -2.3555   -0.5663 H   0  0  0  0  0  0  0  0  0  0  0  0
   -1.7962   -6.0478    0.2698 H   0  0  0  0  0  0  0  0  0  0  0  0
   -3.9841   -4.9369    0.0782 H   0  0  0  0  0  0  0  0  0  0  0  0
   -5.5298   -4.0094   -0.9795 H   0  0  0  0  0  0  0  0  0  0  0  0
   -5.4834   -3.6357    0.7602 H   0  0  0  0  0  0  0  0  0  0  0  0
   -5.6557   -0.5714   -0.8141 H   0  0  0  0  0  0  0  0  0  0  0  0
   -7.6754    0.8145   -1.0580 H   0  0  0  0  0  0  0  0  0  0  0  0
   -9.9036   -0.1929   -0.7714 H   0  0  0  0  0  0  0  0  0  0  0  0
  -10.1138   -2.5878   -0.2417 H   0  0  0  0  0  0  0  0  0  0  0  0
   -1.7088   -4.2814    2.5392 H   0  0  0  0  0  0  0  0  0  0  0  0
   -0.5261   -3.8044    3.7810 H   0  0  0  0  0  0  0  0  0  0  0  0
   -0.2860   -3.3120    2.0874 H   0  0  0  0  0  0  0  0  0  0  0  0
   -1.9311   -7.3771   -2.1563 H   0  0  0  0  0  0  0  0  0  0  0  0
    3.7777   -5.2316   -1.5683 H   0  0  0  0  0  0  0  0  0  0  0  0
    3.2418   -4.6958   -3.1789 H   0  0  0  0  0  0  0  0  0  0  0  0
    2.5903   -3.9141   -1.7185 H   0  0  0  0  0  0  0  0  0  0  0  0
    1.4558   -8.1205    3.1486 H   0  0  0  0  0  0  0  0  0  0  0  0
  1  2  1  0  0  0  0
  1 36  1  0  0  0  0
  1 37  1  0  0  0  0
  1 38  1  0  0  0  0
  2  3  1  0  0  0  0
  2 39  1  0  0  0  0
  2 40  1  0  0  0  0
  3  4  1  0  0  0  0
  4  9  2  0  0  0  0
  4  5  1  0  0  0  0
  5  6  2  0  0  0  0
  5 41  1  0  0  0  0
  6  7  1  0  0  0  0
  6 19  1  0  0  0  0
  7  8  2  0  0  0  0
  7 42  1  0  0  0  0
  8  9  1  0  0  0  0
  8 43  1  0  0  0  0
  9 10  1  0  0  0  0
 10 11  1  0  0  0  0
 11 12  1  0  0  0  0
 11 44  1  0  0  0  0
 11 45  1  0  0  0  0
 12 17  2  0  0  0  0
 12 13  1  0  0  0  0
 13 14  2  0  0  0  0
 13 46  1  0  0  0  0
 14 15  1  0  0  0  0
 14 47  1  0  0  0  0
 15 16  2  0  0  0  0
 15 48  1  0  0  0  0
 16 17  1  0  0  0  0
 16 49  1  0  0  0  0
 17 18  1  0  0  0  0
 19 20  1  1  0  0  0
 19 21  1  0  0  0  0
 19 28  1  0  0  0  0
 21 25  2  0  0  0  0
 21 22  1  0  0  0  0
 22 27  1  0  0  0  0
 22 23  2  0  0  0  0
 23 24  1  0  0  0  0
 24 25  1  0  0  0  0
 24 57  1  0  0  0  0
 25 26  1  0  0  0  0
 27 50  1  0  0  0  0
 27 51  1  0  0  0  0
 27 52  1  0  0  0  0
 28 32  1  0  0  0  0
 28 29  2  0  0  0  0
 29 30  1  0  0  0  0
 29 35  1  0  0  0  0
 30 31  2  0  0  0  0
 31 32  1  0  0  0  0
 32 33  1  1  0  0  0
 32 34  1  0  0  0  0
 34 53  1  0  0  0  0
 35 54  1  0  0  0  0
 35 55  1  0  0  0  0
 35 56  1  0  0  0  0
M  CHG  1  26  -1
M  END
$$$$
ZINC13052592
 OpenBabel01252620473D

 56 58  0  0  1  0  0  0  0  0999 V2000
   -0.0187    1.5258    0.0104 C   0  0  0  0  0  0  0  0  0  0  0  0
    0.0021   -0.0041    0.0020 C   0  0  1  0  0  0  0  0  0  0  0  0
    0.5123   -0.3556   -0.8948 H   0  0  0  0  0  0  0  0  0  0  0  0
    0.7421   -0.5109    1.2415 C   0  0  0  0  0  0  0  0  0  0  0  0
    0.8664   -1.9690    1.1738 N   0  0  0  0  0  0  0  0  0  0  0  0
   -0.1032   -2.7505    1.7027 C   0  0  0  0  0  0  0  0  0  0  0  0
   -1.0830   -2.2651    2.2370 O   0  0  0  0  0  0  0  0  0  0  0  0
    0.0699   -4.2093    1.6079 C   0  0  0  0  0  0  0  0  0  0  0  0
   -0.8768   -5.0937    2.1236 C   0  0  0  0  0  0  0  0  0  0  0  0
   -0.6801   -6.4404    2.0155 C   0  0  0  0  0  0  0  0  0  0  0  0
    0.4675   -6.9457    1.3893 C   0  0  0  0  0  0  0  0  0  0  0  0
    1.4240   -6.0822    0.8686 C   0  0  0  0  0  0  0  0  0  0  0  0
    1.2325   -4.7013    0.9734 C   0  0  0  0  0  0  0  0  0  0  0  0
    2.1370   -3.8231    0.4801 N   0  0  0  0  0  0  0  0  0  0  0  0
    1.9573   -2.5286    0.5725 C   0  0  0  0  0  0  0  0  0  0  0  0
    3.1836   -1.4598   -0.1046 S   0  0  0  0  0  0  0  0  0  0  0  0
    4.4243   -2.5930   -0.7883 C   0  0  0  0  0  0  0  0  0  0  0  0
    5.5447   -1.7973   -1.4068 C   0  0  0  0  0  0  0  0  0  0  0  0
    5.5097   -0.5851   -1.3883 O   0  0  0  0  0  0  0  0  0  0  0  0
    6.5856   -2.4327   -1.9805 N   0  0  0  0  0  0  0  0  0  0  0  0
    7.6748   -1.6592   -2.5818 C   0  0  1  0  0  0  0  0  0  0  0  0
    7.8402   -0.7521   -2.0005 H   0  0  0  0  0  0  0  0  0  0  0  0
    8.9339   -2.4872   -2.5901 C   0  0  0  0  0  0  0  0  0  0  0  0
   10.2081   -2.1057   -2.3290 C   0  0  0  0  0  0  0  0  0  0  0  0
   11.2171   -3.0481   -2.3964 C   0  0  0  0  0  0  0  0  0  0  0  0
   10.9026   -4.3258   -2.7216 C   0  0  0  0  0  0  0  0  0  0  0  0
    9.1333   -4.2268   -2.9386 S   0  0  0  0  0  0  0  0  0  0  0  0
    7.3018   -1.2840   -4.0174 C   0  0  0  0  0  0  0  0  0  0  0  0
    8.4393   -0.4762   -4.6454 C   0  0  0  0  0  0  0  0  0  0  0  0
    7.0695   -2.5572   -4.8334 C   0  0  0  0  0  0  0  0  0  0  0  0
    0.6620   -8.4070    1.2823 C   0  0  0  0  0  0  0  0  0  0  0  0
   -0.1765   -9.1704    1.7392 O   0  0  0  0  0  0  0  0  0  0  0  0
    1.6615   -8.8523    0.7369 O   0  0  0  0  0  1  0  0  0  0  0  0
   -1.3386   -0.4987    0.0122 O   0  0  0  0  0  0  0  0  0  0  0  0
    1.0039    1.9031    0.0027 H   0  0  0  0  0  0  0  0  0  0  0  0
   -0.5459    1.8868   -0.8726 H   0  0  0  0  0  0  0  0  0  0  0  0
   -0.5289    1.8773    0.9072 H   0  0  0  0  0  0  0  0  0  0  0  0
    1.7350   -0.0630    1.2804 H   0  0  0  0  0  0  0  0  0  0  0  0
    0.1838   -0.2350    2.1361 H   0  0  0  0  0  0  0  0  0  0  0  0
   -1.7641   -4.7139    2.6083 H   0  0  0  0  0  0  0  0  0  0  0  0
   -1.4152   -7.1225    2.4164 H   0  0  0  0  0  0  0  0  0  0  0  0
    2.3076   -6.4746    0.3872 H   0  0  0  0  0  0  0  0  0  0  0  0
    4.8217   -3.2207    0.0093 H   0  0  0  0  0  0  0  0  0  0  0  0
    3.9620   -3.2217   -1.5492 H   0  0  0  0  0  0  0  0  0  0  0  0
    6.6136   -3.4022   -1.9954 H   0  0  0  0  0  0  0  0  0  0  0  0
   10.4317   -1.0808   -2.0725 H   0  0  0  0  0  0  0  0  0  0  0  0
   12.2409   -2.7704   -2.1934 H   0  0  0  0  0  0  0  0  0  0  0  0
   11.5530   -5.1824   -2.8200 H   0  0  0  0  0  0  0  0  0  0  0  0
    6.3910   -0.6851   -4.0115 H   0  0  0  0  0  0  0  0  0  0  0  0
    8.6047    0.4309   -4.0641 H   0  0  0  0  0  0  0  0  0  0  0  0
    9.3500   -1.0750   -4.6514 H   0  0  0  0  0  0  0  0  0  0  0  0
    8.1735   -0.2088   -5.6682 H   0  0  0  0  0  0  0  0  0  0  0  0
    6.2591   -3.1327   -4.3860 H   0  0  0  0  0  0  0  0  0  0  0  0
    6.8038   -2.2899   -5.8562 H   0  0  0  0  0  0  0  0  0  0  0  0
    7.9802   -3.1561   -4.8394 H   0  0  0  0  0  0  0  0  0  0  0  0
   -1.8531   -0.2245    0.7836 H   0  0  0  0  0  0  0  0  0  0  0  0
  1  2  1  0  0  0  0
  1 35  1  0  0  0  0
  1 36  1  0  0  0  0
  1 37  1  0  0  0  0
  2  3  1  6  0  0  0
  2  4  1  0  0  0  0
  2 34  1  0  0  0  0
  4  5  1  0  0  0  0
  4 38  1  0  0  0  0
  4 39  1  0  0  0  0
  5 15  1  0  0  0  0
  5  6  1  0  0  0  0
  6  7  2  0  0  0  0
  6  8  1  0  0  0  0
  8 13  2  0  0  0  0
  8  9  1  0  0  0  0
  9 10  2  0  0  0  0
  9 40  1  0  0  0  0
 10 11  1  0  0  0  0
 10 41  1  0  0  0  0
 11 12  2  0  0  0  0
 11 31  1  0  0  0  0
 12 13  1  0  0  0  0
 12 42  1  0  0  0  0
 13 14  1  0  0  0  0
 14 15  2  0  0  0  0
 15 16  1  0  0  0  0
 16 17  1  0  0  0  0
 17 18  1  0  0  0  0
 17 43  1  0  0  0  0
 17 44  1  0  0  0  0
 18 19  2  0  0  0  0
 18 20  1  0  0  0  0
 20 21  1  0  0  0  0
 20 45  1  0  0  0  0
 21 22  1  1  0  0  0
 21 23  1  0  0  0  0
 21 28  1  0  0  0  0
 23 27  1  0  0  0  0
 23 24  2  0  0  0  0
 24 25  1  0  0  0  0
 24 46  1  0  0  0  0
 25 26  2  0  0  0  0
 25 47  1  0  0  0  0
 26 27  1  0  0  0  0
 26 48  1  0  0  0  0
 28 29  1  0  0  0  0
 28 30  1  0  0  0  0
 28 49  1  0  0  0  0
 29 50  1  0  0  0  0
 29 51  1  0  0  0  0
 29 52  1  0  0  0  0
 30 53  1  0  0  0  0
 30 54  1  0  0  0  0
 30 55  1  0  0  0  0
 31 32  2  0  0  0  0
 31 33  1  0  0  0  0
 34 56  1  0  0  0  0
M  END
$$$$
ZINC62874331
 OpenBabel01252620473D

 46 47  0  0  1  0  0  0  0  0999 V2000
   -2.6321   -2.7845    2.2248 C   0  0  0  0  0  0  0  0  0  0  0  0
   -1.6190   -3.8377    1.7717 C   0  0  0  0  0  0  0  0  0  0  0  0
   -1.2236   -3.5699    0.4248 O   0  0  0  0  0  0  0  0  0  0  0  0
   -0.2737   -4.5007   -0.0980 C   0  0  2  0  0  0  0  0  0  0  0  0
    1.1432   -4.0041    0.1985 C   0  0  0  0  0  0  0  0  0  0  0  0
    2.1581   -5.0212   -0.3328 C   0  0  0  0  0  0  0  0  0  0  0  0
    1.8878   -5.2591   -1.7572 N   0  0  0  0  0  0  0  0  0  0  0  0
    0.5317   -5.6531   -2.1627 C   0  0  0  0  0  0  0  0  0  0  0  0
   -0.4650   -4.6289   -1.6110 C   0  0  0  0  0  0  0  0  0  0  0  0
    2.8652   -5.1183   -2.6745 C   0  0  0  0  0  0  0  0  0  0  0  0
    3.9175   -4.5931   -2.3659 O   0  0  0  0  0  0  0  0  0  0  0  0
    2.6761   -5.5596   -3.9339 N   0  0  0  0  0  0  0  0  0  0  0  0
    1.5399   -5.0800   -4.7325 C   0  0  0  0  0  0  0  0  0  0  0  0
    2.0678   -4.5360   -6.0638 C   0  0  0  0  0  0  0  0  0  0  0  0
    2.9101   -5.6125   -6.7522 C   0  0  0  0  0  0  0  0  0  0  0  0
    4.1069   -5.9693   -5.8676 C   0  0  2  0  0  0  0  0  0  0  0  0
    3.6056   -6.5249   -4.5363 C   0  0  0  0  0  0  0  0  0  0  0  0
    4.9438   -4.7146   -5.6103 C   0  0  0  0  0  0  0  0  0  0  0  0
    4.9532   -7.0059   -6.5607 C   0  0  0  0  0  0  0  0  0  0  0  0
    6.1551   -7.0454   -6.3594 O   0  0  0  0  0  0  0  0  0  0  0  0
    4.4361   -7.8049   -7.3226 O   0  0  0  0  0  1  0  0  0  0  0  0
   -2.1772   -1.7954    2.1695 H   0  0  0  0  0  0  0  0  0  0  0  0
   -3.5069   -2.8188    1.5755 H   0  0  0  0  0  0  0  0  0  0  0  0
   -2.9337   -2.9887    3.2521 H   0  0  0  0  0  0  0  0  0  0  0  0
   -0.7442   -3.8034    2.4209 H   0  0  0  0  0  0  0  0  0  0  0  0
   -2.0739   -4.8268    1.8269 H   0  0  0  0  0  0  0  0  0  0  0  0
   -0.4227   -5.4735    0.3706 H   0  0  0  0  0  0  0  0  0  0  0  0
    1.3015   -3.0428   -0.2904 H   0  0  0  0  0  0  0  0  0  0  0  0
    1.2712   -3.8907    1.2750 H   0  0  0  0  0  0  0  0  0  0  0  0
    3.1673   -4.6270   -0.2133 H   0  0  0  0  0  0  0  0  0  0  0  0
    2.0612   -5.9563    0.2187 H   0  0  0  0  0  0  0  0  0  0  0  0
    0.4677   -5.6758   -3.2506 H   0  0  0  0  0  0  0  0  0  0  0  0
    0.3021   -6.6398   -1.7605 H   0  0  0  0  0  0  0  0  0  0  0  0
   -1.4817   -4.9602   -1.8223 H   0  0  0  0  0  0  0  0  0  0  0  0
   -0.2916   -3.6617   -2.0828 H   0  0  0  0  0  0  0  0  0  0  0  0
    0.8523   -5.9043   -4.9215 H   0  0  0  0  0  0  0  0  0  0  0  0
    1.0229   -4.2866   -4.1928 H   0  0  0  0  0  0  0  0  0  0  0  0
    1.2286   -4.2656   -6.7046 H   0  0  0  0  0  0  0  0  0  0  0  0
    2.6832   -3.6556   -5.8786 H   0  0  0  0  0  0  0  0  0  0  0  0
    2.3008   -6.5015   -6.9147 H   0  0  0  0  0  0  0  0  0  0  0  0
    3.2666   -5.2365   -7.7111 H   0  0  0  0  0  0  0  0  0  0  0  0
    4.4511   -6.6846   -3.8671 H   0  0  0  0  0  0  0  0  0  0  0  0
    3.0902   -7.4697   -4.7090 H   0  0  0  0  0  0  0  0  0  0  0  0
    4.3313   -3.9660   -5.1078 H   0  0  0  0  0  0  0  0  0  0  0  0
    5.7961   -4.9692   -4.9803 H   0  0  0  0  0  0  0  0  0  0  0  0
    5.3003   -4.3147   -6.5596 H   0  0  0  0  0  0  0  0  0  0  0  0
  1  2  1  0  0  0  0
  1 22  1  0  0  0  0
  1 23  1  0  0  0  0
  1 24  1  0  0  0  0
  2  3  1  0  0  0  0
  2 25  1  0  0  0  0
  2 26  1  0  0  0  0
  3  4  1  0  0  0  0
  4  9  1  0  0  0  0
  4  5  1  0  0  0  0
  4 27  1  1  0  0  0
  5  6  1  0  0  0  0
  5 28  1  0  0  0  0
  5 29  1  0  0  0  0
  6  7  1  0  0  0  0
  6 30  1  0  0  0  0
  6 31  1  0  0  0  0
  7  8  1  0  0  0  0
  7 10  1  0  0  0  0
  8  9  1  0  0  0  0
  8 32  1  0  0  0  0
  8 33  1  0  0  0  0
  9 34  1  0  0  0  0
  9 35  1  0  0  0  0
 10 11  2  0  0  0  0
 10 12  1  0  0  0  0
 12 17  1  0  0  0  0
 12 13  1  0  0  0  0
 13 14  1  0  0  0  0
 13 36  1  0  0  0  0
 13 37  1  0  0  0  0
 14 15  1  0  0  0  0
 14 38  1  0  0  0  0
 14 39  1  0  0  0  0
 15 16  1  0  0  0  0
 15 40  1  0  0  0  0
 15 41  1  0  0  0  0
 16 17  1  0  0  0  0
 16 18  1  0  0  0  0
 16 19  1  6  0  0  0
 17 42  1  0  0  0  0
 17 43  1  0  0  0  0
 18 44  1  0  0  0  0
 18 45  1  0  0  0  0
 18 46  1  0  0  0  0
 19 20  2  0  0  0  0
 19 21  1  0  0  0  0
M  END
$$$$
ZINC04689998
 OpenBabel01252620473D

 37 39  0  0  0  0  0  0  0  0999 V2000
   -0.1149    1.4194   -0.0427 C   0  0  0  0  0  0  0  0  0  0  0  0
    0.0023   -0.0041    0.0022 O   0  0  0  0  0  0  0  0  0  0  0  0
    0.6061   -0.6080   -1.0573 C   0  0  0  0  0  0  0  0  0  0  0  0
    1.0768    0.1539   -2.1067 C   0  0  0  0  0  0  0  0  0  0  0  0
    1.6982   -0.4667   -3.1960 C   0  0  0  0  0  0  0  0  0  0  0  0
    1.8390   -1.8638   -3.2143 C   0  0  0  0  0  0  0  0  0  0  0  0
    1.3618   -2.6185   -2.1536 C   0  0  0  0  0  0  0  0  0  0  0  0
    0.7526   -1.9953   -1.0765 C   0  0  0  0  0  0  0  0  0  0  0  0
    0.2917   -2.7385   -0.0371 O   0  0  0  0  0  0  0  0  0  0  0  0
    0.4737   -4.1534   -0.1203 C   0  0  0  0  0  0  0  0  0  0  0  0
    2.4557   -2.4893   -4.2946 N   0  0  0  0  0  2  0  0  0  0  0  0
    2.6201   -4.1370   -4.3139 S   0  0  0  0  0  0  0  0  0  0  0  0
    3.5129   -4.4684   -3.2593 O   0  0  0  0  0  0  0  0  0  0  0  0
    1.3077   -4.6751   -4.3984 O   0  0  0  0  0  0  0  0  0  0  0  0
    3.4362   -4.5615   -5.8167 C   0  0  0  0  0  0  0  0  0  0  0  0
    2.7009   -4.8242   -6.9637 C   0  0  0  0  0  0  0  0  0  0  0  0
    3.3108   -5.1565   -8.1449 C   0  0  0  0  0  0  0  0  0  0  0  0
    4.7195   -5.2420   -8.2316 C   0  0  0  0  0  0  0  0  0  0  0  0
    5.4355   -4.9677   -7.0445 C   0  0  0  0  0  0  0  0  0  0  0  0
    4.8163   -4.6308   -5.8667 C   0  0  0  0  0  0  0  0  0  0  0  0
    7.1218   -5.1766   -7.5634 S   0  0  0  0  0  0  0  0  0  0  0  0
    6.7819   -5.6007   -9.2660 C   0  0  0  0  0  0  0  0  0  0  0  0
    7.6542   -5.8957  -10.2576 O   0  5  0  0  0  0  0  0  0  0  0  0
    5.4719   -5.5536   -9.3098 N   0  0  0  0  0  0  0  0  0  0  0  0
    2.1880    0.3196   -4.2880 C   0  0  0  0  0  0  0  0  0  0  0  0
    2.5767    0.9434   -5.1542 N   0  0  0  0  0  0  0  0  0  0  0  0
    0.8784    1.8638   -0.1061 H   0  0  0  0  0  0  0  0  0  0  0  0
   -0.6988    1.7085   -0.9165 H   0  0  0  0  0  0  0  0  0  0  0  0
   -0.6136    1.7715    0.8603 H   0  0  0  0  0  0  0  0  0  0  0  0
    0.9655    1.2280   -2.0876 H   0  0  0  0  0  0  0  0  0  0  0  0
    1.4685   -3.6931   -2.1652 H   0  0  0  0  0  0  0  0  0  0  0  0
   -0.0395   -4.5345   -1.0031 H   0  0  0  0  0  0  0  0  0  0  0  0
    1.5376   -4.3792   -0.1927 H   0  0  0  0  0  0  0  0  0  0  0  0
    0.0620   -4.6257    0.7716 H   0  0  0  0  0  0  0  0  0  0  0  0
    1.6232   -4.7657   -6.9244 H   0  0  0  0  0  0  0  0  0  0  0  0
    2.7089   -5.3555   -9.0193 H   0  0  0  0  0  0  0  0  0  0  0  0
    5.4031   -4.4249   -4.9837 H   0  0  0  0  0  0  0  0  0  0  0  0
  1  2  1  0  0  0  0
  1 27  1  0  0  0  0
  1 28  1  0  0  0  0
  1 29  1  0  0  0  0
  2  3  1  0  0  0  0
  3  8  2  0  0  0  0
  3  4  1  0  0  0  0
  4  5  2  0  0  0  0
  4 30  1  0  0  0  0
  5  6  1  0  0  0  0
  5 25  1  0  0  0  0
  6  7  2  0  0  0  0
  6 11  1  0  0  0  0
  7  8  1  0  0  0  0
  7 31  1  0  0  0  0
  8  9  1  0  0  0  0
  9 10  1  0  0  0  0
 10 32  1  0  0  0  0
 10 33  1  0  0  0  0
 10 34  1  0  0  0  0
 11 12  1  0  0  0  0
 12 13  2  0  0  0  0
 12 14  2  0  0  0  0
 12 15  1  0  0  0  0
 15 20  2  0  0  0  0
 15 16  1  0  0  0  0
 16 17  2  0  0  0  0
 16 35  1  0  0  0  0
 17 18  1  0  0  0  0
 17 36  1  0  0  0  0
 18 24  1  0  0  0  0
 18 19  2  0  0  0  0
 19 20  1  0  0  0  0
 19 21  1  0  0  0  0
 20 37  1  0  0  0  0
 21 22  1  0  0  0  0
 22 23  1  0  0  0  0
 22 24  2  0  0  0  0
 25 26  3  0  0  0  0
M  CHG  1  23  -1
M  END
$$$$
ZINC13347320
 OpenBabel01252620473D

 37 38  0  0  1  0  0  0  0  0999 V2000
    5.3108    3.1979   -4.2393 C   0  0  0  0  0  0  0  0  0  0  0  0
    6.0357    3.8074   -5.2460 C   0  0  0  0  0  0  0  0  0  0  0  0
    5.7602    5.1157   -5.6016 C   0  0  0  0  0  0  0  0  0  0  0  0
    4.7554    5.8114   -4.9531 C   0  0  0  0  0  0  0  0  0  0  0  0
    4.0274    5.1990   -3.9505 C   0  0  0  0  0  0  0  0  0  0  0  0
    4.3034    3.8918   -3.5952 C   0  0  0  0  0  0  0  0  0  0  0  0
    3.5099    3.2250   -2.5013 C   0  0  1  0  0  0  0  0  0  0  0  0
    3.0350    3.9856   -1.8816 H   0  0  0  0  0  0  0  0  0  0  0  0
    2.4359    2.3302   -3.1231 C   0  0  0  0  0  0  0  0  0  0  0  0
    1.5532    1.7747   -2.0353 C   0  0  0  0  0  0  0  0  0  0  0  0
    1.6941    2.1464   -0.8943 O   0  0  0  0  0  0  0  0  0  0  0  0
    4.4052    2.4112   -1.6752 N   0  0  0  0  0  0  0  0  0  0  0  0
    5.0798    3.0529   -0.3057 S   0  0  0  0  0  0  0  0  0  0  0  0
    5.6563    4.2962   -0.6812 O   0  0  0  0  0  0  0  0  0  0  0  0
    5.8370    2.0138    0.2993 O   0  0  0  0  0  0  0  0  0  0  0  0
    3.7596    3.4237    0.8008 C   0  0  0  0  0  0  0  0  0  0  0  0
    3.2111    4.6945    0.8196 C   0  0  0  0  0  0  0  0  0  0  0  0
    2.1747    4.9949    1.6845 C   0  0  0  0  0  0  0  0  0  0  0  0
    1.6798    4.0270    2.5363 C   0  0  0  0  0  0  0  0  0  0  0  0
    2.2291    2.7424    2.5222 C   0  0  0  0  0  0  0  0  0  0  0  0
    3.2757    2.4472    1.6456 C   0  0  0  0  0  0  0  0  0  0  0  0
    1.7061    1.7019    3.4301 C   0  0  0  0  0  0  0  0  0  0  0  0
    0.7961    1.9618    4.1916 O   0  0  0  0  0  0  0  0  0  0  0  0
    0.2622    4.4390    3.7181 Br  0  0  0  0  0  0  0  0  0  0  0  0
    6.6754    5.8844   -6.8606 Cl  0  0  0  0  0  0  0  0  0  0  0  0
    5.5287    2.1781   -3.9585 H   0  0  0  0  0  0  0  0  0  0  0  0
    6.8199    3.2639   -5.7519 H   0  0  0  0  0  0  0  0  0  0  0  0
    4.5401    6.8328   -5.2300 H   0  0  0  0  0  0  0  0  0  0  0  0
    3.2430    5.7419   -3.4442 H   0  0  0  0  0  0  0  0  0  0  0  0
    1.8325    2.9155   -3.8171 H   0  0  0  0  0  0  0  0  0  0  0  0
    2.9124    1.5094   -3.6590 H   0  0  0  0  0  0  0  0  0  0  0  0
    4.6029    1.4965   -1.9304 H   0  0  0  0  0  0  0  0  0  0  0  0
    3.5943    5.4551    0.1555 H   0  0  0  0  0  0  0  0  0  0  0  0
    1.7485    5.9872    1.6908 H   0  0  0  0  0  0  0  0  0  0  0  0
    3.7051    1.4565    1.6297 H   0  0  0  0  0  0  0  0  0  0  0  0
    0.6107    0.8669   -2.3339 O   0  0  0  0  0  1  0  0  0  0  0  0
    2.2381    0.4643    3.4138 O   0  0  0  0  0  1  0  0  0  0  0  0
  1  6  2  0  0  0  0
  1  2  1  0  0  0  0
  1 26  1  0  0  0  0
  2  3  2  0  0  0  0
  2 27  1  0  0  0  0
  3  4  1  0  0  0  0
  3 25  1  0  0  0  0
  4  5  2  0  0  0  0
  4 28  1  0  0  0  0
  5  6  1  0  0  0  0
  5 29  1  0  0  0  0
  6  7  1  0  0  0  0
  7  8  1  1  0  0  0
  7  9  1  0  0  0  0
  7 12  1  0  0  0  0
  9 10  1  0  0  0  0
  9 30  1  0  0  0  0
  9 31  1  0  0  0  0
 10 11  2  0  0  0  0
 10 36  1  0  0  0  0
 12 13  1  0  0  0  0
 12 32  1  0  0  0  0
 13 14  2  0  0  0  0
 13 15  2  0  0  0  0
 13 16  1  0  0  0  0
 16 21  2  0  0  0  0
 16 17  1  0  0  0  0
 17 18  2  0  0  0  0
 17 33  1  0  0  0  0
 18 19  1  0  0  0  0
 18 34  1  0  0  0  0
 19 20  2  0  0  0  0
 19 24  1  0  0  0  0
 20 21  1  0  0  0  0
 20 22  1  0  0  0  0
 21 35  1  0  0  0  0
 22 23  2  0  0  0  0
 22 37  1  0  0  0  0
M  END
$$$$
ZINC40098983
 OpenBabel01252620473D

 50 52  0  0  1  0  0  0  0  0999 V2000
   -0.7630    0.2856    0.8079 C   0  0  0  0  0  0  0  0  0  0  0  0
   -0.7783   -1.1709    0.4214 C   0  0  0  0  0  0  0  0  0  0  0  0
   -0.5922   -1.5838   -0.8929 C   0  0  0  0  0  0  0  0  0  0  0  0
   -0.7153   -3.3548   -0.6976 S   0  0  0  0  0  0  0  0  0  0  0  0
   -0.9795   -3.3877    0.9641 C   0  0  0  0  0  0  0  0  0  0  0  0
   -0.9622   -2.1191    1.3053 N   0  0  0  0  0  0  0  0  0  0  0  0
   -1.1823   -4.5886    1.8517 C   0  0  0  0  0  0  0  0  0  0  0  0
   -0.3601   -0.7874   -2.1022 C   0  0  0  0  0  0  0  0  0  0  0  0
   -0.4020    0.4289   -2.0480 O   0  0  0  0  0  0  0  0  0  0  0  0
   -0.0773   -1.4559   -3.3781 C   0  0  0  0  0  0  0  0  0  0  0  0
    0.0329   -0.8665   -4.5904 C   0  0  0  0  0  0  0  0  0  0  0  0
    0.3237   -1.8973   -5.6073 C   0  0  0  0  0  0  0  0  0  0  0  0
    0.4789   -1.6826   -6.7932 O   0  0  0  0  0  0  0  0  0  0  0  0
    0.3918   -3.1091   -5.0268 N   0  0  0  0  0  0  0  0  0  0  0  0
    0.1533   -2.9341   -3.5892 C   0  0  1  0  0  0  0  0  0  0  0  0
   -0.7288   -3.4981   -3.2862 H   0  0  0  0  0  0  0  0  0  0  0  0
    1.3556   -3.3886   -2.8025 C   0  0  0  0  0  0  0  0  0  0  0  0
    2.3170   -2.4733   -2.4198 C   0  0  0  0  0  0  0  0  0  0  0  0
    3.4231   -2.8915   -1.6954 C   0  0  0  0  0  0  0  0  0  0  0  0
    3.5642   -4.2289   -1.3550 C   0  0  0  0  0  0  0  0  0  0  0  0
    2.6030   -5.1439   -1.7375 C   0  0  0  0  0  0  0  0  0  0  0  0
    1.4940   -4.7247   -2.4576 C   0  0  0  0  0  0  0  0  0  0  0  0
    0.5448   -5.6247   -2.8295 O   0  0  0  0  0  0  0  0  0  0  0  0
    0.6960   -6.9624   -2.3502 C   0  0  0  0  0  0  0  0  0  0  0  0
    4.3697   -1.9907   -1.3191 O   0  0  0  0  0  0  0  0  0  0  0  0
    5.4823   -2.4912   -0.5749 C   0  0  0  0  0  0  0  0  0  0  0  0
    0.6614   -4.3778   -5.7081 C   0  0  0  0  0  0  0  0  0  0  0  0
    2.1715   -4.5532   -5.8807 C   0  0  0  0  0  0  0  0  0  0  0  0
    2.7865   -4.6772   -4.5968 O   0  0  0  0  0  0  0  0  0  0  0  0
   -0.1020    0.4584   -4.8332 O   0  5  0  0  0  0  0  0  0  0  0  0
    0.2551    0.5847    1.0569 H   0  0  0  0  0  0  0  0  0  0  0  0
   -1.1246    0.8867   -0.0263 H   0  0  0  0  0  0  0  0  0  0  0  0
   -1.4085    0.4388    1.6728 H   0  0  0  0  0  0  0  0  0  0  0  0
   -0.2297   -4.8769    2.2961 H   0  0  0  0  0  0  0  0  0  0  0  0
   -1.8916   -4.3411    2.6414 H   0  0  0  0  0  0  0  0  0  0  0  0
   -1.5723   -5.4164    1.2594 H   0  0  0  0  0  0  0  0  0  0  0  0
    2.2074   -1.4322   -2.6851 H   0  0  0  0  0  0  0  0  0  0  0  0
    4.4258   -4.5546   -0.7911 H   0  0  0  0  0  0  0  0  0  0  0  0
    2.7132   -6.1852   -1.4732 H   0  0  0  0  0  0  0  0  0  0  0  0
    1.6755   -7.3434   -2.6394 H   0  0  0  0  0  0  0  0  0  0  0  0
    0.6090   -6.9711   -1.2637 H   0  0  0  0  0  0  0  0  0  0  0  0
   -0.0811   -7.5930   -2.7820 H   0  0  0  0  0  0  0  0  0  0  0  0
    5.1262   -2.9454    0.3497 H   0  0  0  0  0  0  0  0  0  0  0  0
    6.0089   -3.2391   -1.1677 H   0  0  0  0  0  0  0  0  0  0  0  0
    6.1604   -1.6710   -0.3393 H   0  0  0  0  0  0  0  0  0  0  0  0
    0.2657   -5.2009   -5.1131 H   0  0  0  0  0  0  0  0  0  0  0  0
    0.1818   -4.3736   -6.6869 H   0  0  0  0  0  0  0  0  0  0  0  0
    2.3683   -5.4512   -6.4662 H   0  0  0  0  0  0  0  0  0  0  0  0
    2.5813   -3.6854   -6.3976 H   0  0  0  0  0  0  0  0  0  0  0  0
    3.7523   -4.7152   -4.6254 H   0  0  0  0  0  0  0  0  0  0  0  0
  1  2  1  0  0  0  0
  1 31  1  0  0  0  0
  1 32  1  0  0  0  0
  1 33  1  0  0  0  0
  2  6  1  0  0  0  0
  2  3  2  0  0  0  0
  3  4  1  0  0  0  0
  3  8  1  0  0  0  0
  4  5  1  0  0  0  0
  5  6  2  0  0  0  0
  5  7  1  0  0  0  0
  7 34  1  0  0  0  0
  7 35  1  0  0  0  0
  7 36  1  0  0  0  0
  8  9  2  0  0  0  0
  8 10  1  0  0  0  0
 10 15  1  0  0  0  0
 10 11  2  0  0  0  0
 11 12  1  0  0  0  0
 11 30  1  0  0  0  0
 12 13  2  0  0  0  0
 12 14  1  0  0  0  0
 14 15  1  0  0  0  0
 14 27  1  0  0  0  0
 15 16  1  1  0  0  0
 15 17  1  0  0  0  0
 17 22  2  0  0  0  0
 17 18  1  0  0  0  0
 18 19  2  0  0  0  0
 18 37  1  0  0  0  0
 19 20  1  0  0  0  0
 19 25  1  0  0  0  0
 20 21  2  0  0  0  0
 20 38  1  0  0  0  0
 21 22  1  0  0  0  0
 21 39  1  0  0  0  0
 22 23  1  0  0  0  0
 23 24  1  0  0  0  0
 24 40  1  0  0  0  0
 24 41  1  0  0  0  0
 24 42  1  0  0  0  0
 25 26  1  0  0  0  0
 26 43  1  0  0  0  0
 26 44  1  0  0  0  0
 26 45  1  0  0  0  0
 27 28  1  0  0  0  0
 27 46  1  0  0  0  0
 27 47  1  0  0  0  0
 28 29  1  0  0  0  0
 28 48  1  0  0  0  0
 28 49  1  0  0  0  0
 29 50  1  0  0  0  0
M  CHG  1  30  -1
M  END
$$$$
ZINC13088149
 OpenBabel01252620473D

 34 36  0  0  0  0  0  0  0  0999 V2000
   -0.3338   -3.9162    3.3759 C   0  0  0  0  0  0  0  0  0  0  0  0
   -0.6238   -2.8784    2.5347 C   0  0  0  0  0  0  0  0  0  0  0  0
   -0.7128   -3.1038    1.1620 C   0  0  0  0  0  0  0  0  0  0  0  0
   -0.5051   -4.3926    0.6417 C   0  0  0  0  0  0  0  0  0  0  0  0
   -0.2109   -5.4360    1.5094 C   0  0  0  0  0  0  0  0  0  0  0  0
   -0.1262   -5.1956    2.8692 C   0  0  0  0  0  0  0  0  0  0  0  0
    0.1618   -6.2179    3.7176 O   0  0  0  0  0  0  0  0  0  0  0  0
    1.6500   -6.4111    3.9712 S   0  0  0  0  0  0  0  0  0  0  0  0
    1.7841   -7.6263    4.6956 O   0  0  0  0  0  0  0  0  0  0  0  0
    2.3059   -6.1875    2.7307 O   0  0  0  0  0  0  0  0  0  0  0  0
    2.1660   -5.1201    5.0536 C   0  0  0  0  0  0  0  0  0  0  0  0
    2.1176   -5.3051    6.4224 C   0  0  0  0  0  0  0  0  0  0  0  0
    2.5234   -4.2910    7.2727 C   0  0  0  0  0  0  0  0  0  0  0  0
    2.9783   -3.0913    6.7519 C   0  0  0  0  0  0  0  0  0  0  0  0
    3.0263   -2.9061    5.3836 C   0  0  0  0  0  0  0  0  0  0  0  0
    2.6253   -3.9225    4.5329 C   0  0  0  0  0  0  0  0  0  0  0  0
    2.6774   -3.7434    3.1949 F   0  0  0  0  0  0  0  0  0  0  0  0
    2.4761   -4.4719    8.6107 F   0  0  0  0  0  0  0  0  0  0  0  0
   -0.6519   -4.3128   -0.6961 O   0  0  0  0  0  0  0  0  0  0  0  0
   -0.9470   -3.0554   -1.0719 C   0  0  0  0  0  0  0  0  0  0  0  0
   -0.9972   -2.2530   -0.0005 C   0  0  0  0  0  0  0  0  0  0  0  0
   -1.2926   -0.7753    0.0102 C   0  0  0  0  0  0  0  0  0  0  0  0
    0.0021   -0.0041    0.0020 C   0  0  0  0  0  0  0  0  0  0  0  0
    1.0565   -0.5939   -0.0112 O   0  0  0  0  0  0  0  0  0  0  0  0
   -0.2655   -3.7423    4.4397 H   0  0  0  0  0  0  0  0  0  0  0  0
   -0.7842   -1.8873    2.9325 H   0  0  0  0  0  0  0  0  0  0  0  0
   -0.0485   -6.4317    1.1240 H   0  0  0  0  0  0  0  0  0  0  0  0
    1.7635   -6.2411    6.8285 H   0  0  0  0  0  0  0  0  0  0  0  0
    3.2952   -2.3002    7.4154 H   0  0  0  0  0  0  0  0  0  0  0  0
    3.3807   -1.9703    4.9774 H   0  0  0  0  0  0  0  0  0  0  0  0
   -1.1162   -2.7382   -2.0903 H   0  0  0  0  0  0  0  0  0  0  0  0
   -1.8592   -0.5245    0.9070 H   0  0  0  0  0  0  0  0  0  0  0  0
   -1.8762   -0.5150   -0.8728 H   0  0  0  0  0  0  0  0  0  0  0  0
   -0.0161    1.3381    0.0094 O   0  0  0  0  0  1  0  0  0  0  0  0
  1  6  2  0  0  0  0
  1  2  1  0  0  0  0
  1 25  1  0  0  0  0
  2  3  2  0  0  0  0
  2 26  1  0  0  0  0
  3 21  1  0  0  0  0
  3  4  1  0  0  0  0
  4  5  2  0  0  0  0
  4 19  1  0  0  0  0
  5  6  1  0  0  0  0
  5 27  1  0  0  0  0
  6  7  1  0  0  0  0
  7  8  1  0  0  0  0
  8  9  2  0  0  0  0
  8 10  2  0  0  0  0
  8 11  1  0  0  0  0
 11 16  2  0  0  0  0
 11 12  1  0  0  0  0
 12 13  2  0  0  0  0
 12 28  1  0  0  0  0
 13 14  1  0  0  0  0
 13 18  1  0  0  0  0
 14 15  2  0  0  0  0
 14 29  1  0  0  0  0
 15 16  1  0  0  0  0
 15 30  1  0  0  0  0
 16 17  1  0  0  0  0
 19 20  1  0  0  0  0
 20 21  2  0  0  0  0
 20 31  1  0  0  0  0
 21 22  1  0  0  0  0
 22 23  1  0  0  0  0
 22 32  1  0  0  0  0
 22 33  1  0  0  0  0
 23 24  2  0  0  0  0
 23 34  1  0  0  0  0
M  END
$$$$
ZINC61149919
 OpenBabel01252620473D

 30 30  0  0  0  0  0  0  0  0999 V2000
   -1.4267   -0.6269    0.1443 C   0  0  0  0  0  0  0  0  0  0  0  0
   -0.0031   -0.0677    0.1064 C   0  0  0  0  0  0  0  0  0  0  0  0
   -0.0567    1.4603    0.0482 C   0  0  0  0  0  0  0  0  0  0  0  0
    0.7386   -0.4975    1.3459 C   0  0  0  0  0  0  0  0  0  0  0  0
    1.6855   -1.2602    1.2560 O   0  0  0  0  0  0  0  0  0  0  0  0
    0.3917   -0.0824    2.4386 O   0  0  0  0  0  1  0  0  0  0  0  0
    0.6904   -0.5775   -1.0790 N   0  0  0  0  0  0  0  0  0  0  0  0
   -0.0084   -1.4661   -2.0109 C   0  0  0  0  0  0  0  0  0  0  0  0
    1.9713   -0.2290   -1.3124 C   0  0  0  0  0  0  0  0  0  0  0  0
    2.5264    0.5696   -0.5832 O   0  0  0  0  0  0  0  0  0  0  0  0
    2.7009   -0.8179   -2.4549 C   0  0  0  0  0  0  0  0  0  0  0  0
    2.0639   -0.9757   -3.6871 C   0  0  0  0  0  0  0  0  0  0  0  0
    2.7500   -1.5259   -4.7494 C   0  0  0  0  0  0  0  0  0  0  0  0
    4.0681   -1.9214   -4.5957 C   0  0  0  0  0  0  0  0  0  0  0  0
    4.7055   -1.7675   -3.3759 C   0  0  0  0  0  0  0  0  0  0  0  0
    4.0317   -1.2133   -2.3078 C   0  0  0  0  0  0  0  0  0  0  0  0
    5.0015   -2.6755   -6.0572 Br  0  0  0  0  0  0  0  0  0  0  0  0
   -1.9632   -0.3160   -0.7521 H   0  0  0  0  0  0  0  0  0  0  0  0
   -1.3886   -1.7154    0.1858 H   0  0  0  0  0  0  0  0  0  0  0  0
   -1.9427   -0.2475    1.0264 H   0  0  0  0  0  0  0  0  0  0  0  0
   -0.5727    1.8396    0.9303 H   0  0  0  0  0  0  0  0  0  0  0  0
    0.9575    1.8586    0.0212 H   0  0  0  0  0  0  0  0  0  0  0  0
   -0.5931    1.7711   -0.8483 H   0  0  0  0  0  0  0  0  0  0  0  0
   -0.4374   -0.8774   -2.8218 H   0  0  0  0  0  0  0  0  0  0  0  0
    0.6964   -2.1896   -2.4207 H   0  0  0  0  0  0  0  0  0  0  0  0
   -0.8040   -1.9924   -1.4836 H   0  0  0  0  0  0  0  0  0  0  0  0
    1.0358   -0.6679   -3.8080 H   0  0  0  0  0  0  0  0  0  0  0  0
    2.2582   -1.6488   -5.7030 H   0  0  0  0  0  0  0  0  0  0  0  0
    5.7335   -2.0782   -3.2621 H   0  0  0  0  0  0  0  0  0  0  0  0
    4.5312   -1.0897   -1.3583 H   0  0  0  0  0  0  0  0  0  0  0  0
  1  2  1  0  0  0  0
  1 18  1  0  0  0  0
  1 19  1  0  0  0  0
  1 20  1  0  0  0  0
  2  3  1  0  0  0  0
  2  4  1  0  0  0  0
  2  7  1  0  0  0  0
  3 21  1  0  0  0  0
  3 22  1  0  0  0  0
  3 23  1  0  0  0  0
  4  5  2  0  0  0  0
  4  6  1  0  0  0  0
  7  8  1  0  0  0  0
  7  9  1  0  0  0  0
  8 24  1  0  0  0  0
  8 25  1  0  0  0  0
  8 26  1  0  0  0  0
  9 10  2  0  0  0  0
  9 11  1  0  0  0  0
 11 16  2  0  0  0  0
 11 12  1  0  0  0  0
 12 13  2  0  0  0  0
 12 27  1  0  0  0  0
 13 14  1  0  0  0  0
 13 28  1  0  0  0  0
 14 15  2  0  0  0  0
 14 17  1  0  0  0  0
 15 16  1  0  0  0  0
 15 29  1  0  0  0  0
 16 30  1  0  0  0  0
M  END
$$$$
ZINC35296828
 OpenBabel01252620473D

 52 55  0  0  1  0  0  0  0  0999 V2000
    0.1987   -4.2838   -5.0347 C   0  0  0  0  0  0  0  0  0  0  0  0
   -0.0568   -4.0760   -3.6442 O   0  0  0  0  0  0  0  0  0  0  0  0
    0.4928   -2.9704   -3.0740 C   0  0  0  0  0  0  0  0  0  0  0  0
    1.1688   -2.0485   -3.8570 C   0  0  0  0  0  0  0  0  0  0  0  0
    1.7265   -0.9249   -3.2758 C   0  0  0  0  0  0  0  0  0  0  0  0
    1.6119   -0.7184   -1.9136 C   0  0  0  0  0  0  0  0  0  0  0  0
    0.9391   -1.6344   -1.1267 C   0  0  0  0  0  0  0  0  0  0  0  0
    0.3725   -2.7596   -1.7038 C   0  0  0  0  0  0  0  0  0  0  0  0
   -0.2949   -3.6587   -0.9319 O   0  0  0  0  0  0  0  0  0  0  0  0
   -0.3786   -3.3772    0.4666 C   0  0  0  0  0  0  0  0  0  0  0  0
   -1.1481   -4.4751    1.1547 C   0  0  0  0  0  0  0  0  0  0  0  0
   -0.7044   -4.9805    2.2789 C   0  0  0  0  0  0  0  0  0  0  0  0
    2.4614    0.0766   -4.1289 C   0  0  2  0  0  0  0  0  0  0  0  0
    2.7775    0.9251   -3.5221 H   0  0  0  0  0  0  0  0  0  0  0  0
    1.5747    0.5471   -5.2583 C   0  0  0  0  0  0  0  0  0  0  0  0
    2.1951    0.2045   -6.4104 C   0  0  0  0  0  0  0  0  0  0  0  0
    3.4654   -0.4785   -6.0937 C   0  0  0  0  0  0  0  0  0  0  0  0
    4.2501   -0.9078   -6.9163 O   0  0  0  0  0  0  0  0  0  0  0  0
    3.6266   -0.5554   -4.7589 N   0  0  0  0  0  0  0  0  0  0  0  0
    4.7620   -1.1619   -4.0594 C   0  0  0  0  0  0  0  0  0  0  0  0
    4.4775   -2.6208   -3.8106 C   0  0  0  0  0  0  0  0  0  0  0  0
    4.7897   -3.6352   -4.6371 C   0  0  0  0  0  0  0  0  0  0  0  0
    4.3435   -4.8233   -4.0141 C   0  0  0  0  0  0  0  0  0  0  0  0
    3.7853   -4.4639   -2.8442 C   0  0  0  0  0  0  0  0  0  0  0  0
    3.8746   -3.1293   -2.7236 O   0  0  0  0  0  0  0  0  0  0  0  0
    1.7256    0.4487   -7.6565 O   0  5  0  0  0  0  0  0  0  0  0  0
    0.2881    1.2416   -5.1299 C   0  0  0  0  0  0  0  0  0  0  0  0
   -0.3885    1.4585   -6.1198 O   0  0  0  0  0  0  0  0  0  0  0  0
   -0.1829    1.6742   -3.8110 C   0  0  0  0  0  0  0  0  0  0  0  0
   -1.4122    2.2305   -3.5302 C   0  0  0  0  0  0  0  0  0  0  0  0
   -1.4293    2.4864   -2.1515 C   0  0  0  0  0  0  0  0  0  0  0  0
   -0.2365    2.0853   -1.6558 C   0  0  0  0  0  0  0  0  0  0  0  0
    0.5076    1.5934   -2.6547 O   0  0  0  0  0  0  0  0  0  0  0  0
   -0.2619   -3.4825   -5.6125 H   0  0  0  0  0  0  0  0  0  0  0  0
    1.2745   -4.2861   -5.2101 H   0  0  0  0  0  0  0  0  0  0  0  0
   -0.2215   -5.2414   -5.3422 H   0  0  0  0  0  0  0  0  0  0  0  0
    1.2604   -2.2079   -4.9212 H   0  0  0  0  0  0  0  0  0  0  0  0
    2.0492    0.1605   -1.4633 H   0  0  0  0  0  0  0  0  0  0  0  0
    0.8513   -1.4709   -0.0627 H   0  0  0  0  0  0  0  0  0  0  0  0
    0.6257   -3.3193    0.8863 H   0  0  0  0  0  0  0  0  0  0  0  0
   -0.8902   -2.4264    0.6158 H   0  0  0  0  0  0  0  0  0  0  0  0
   -2.0653   -4.8453    0.7211 H   0  0  0  0  0  0  0  0  0  0  0  0
    0.2128   -4.6104    2.7126 H   0  0  0  0  0  0  0  0  0  0  0  0
   -1.2559   -5.7673    2.7721 H   0  0  0  0  0  0  0  0  0  0  0  0
    5.6590   -1.0658   -4.6710 H   0  0  0  0  0  0  0  0  0  0  0  0
    4.9153   -0.6542   -3.1071 H   0  0  0  0  0  0  0  0  0  0  0  0
    5.2856   -3.5569   -5.5934 H   0  0  0  0  0  0  0  0  0  0  0  0
    4.4333   -5.8268   -4.4030 H   0  0  0  0  0  0  0  0  0  0  0  0
    3.3440   -5.1352   -2.1224 H   0  0  0  0  0  0  0  0  0  0  0  0
   -2.2065    2.4307   -4.2341 H   0  0  0  0  0  0  0  0  0  0  0  0
   -2.2426    2.9225   -1.5905 H   0  0  0  0  0  0  0  0  0  0  0  0
    0.0655    2.1479   -0.6208 H   0  0  0  0  0  0  0  0  0  0  0  0
  1  2  1  0  0  0  0
  1 34  1  0  0  0  0
  1 35  1  0  0  0  0
  1 36  1  0  0  0  0
  2  3  1  0  0  0  0
  3  8  2  0  0  0  0
  3  4  1  0  0  0  0
  4  5  2  0  0  0  0
  4 37  1  0  0  0  0
  5  6  1  0  0  0  0
  5 13  1  0  0  0  0
  6  7  2  0  0  0  0
  6 38  1  0  0  0  0
  7  8  1  0  0  0  0
  7 39  1  0  0  0  0
  8  9  1  0  0  0  0
  9 10  1  0  0  0  0
 10 11  1  0  0  0  0
 10 40  1  0  0  0  0
 10 41  1  0  0  0  0
 11 12  2  0  0  0  0
 11 42  1  0  0  0  0
 12 43  1  0  0  0  0
 12 44  1  0  0  0  0
 13 14  1  1  0  0  0
 13 19  1  0  0  0  0
 13 15  1  0  0  0  0
 15 16  2  0  0  0  0
 15 27  1  0  0  0  0
 16 17  1  0  0  0  0
 16 26  1  0  0  0  0
 17 18  2  0  0  0  0
 17 19  1  0  0  0  0
 19 20  1  0  0  0  0
 20 21  1  0  0  0  0
 20 45  1  0  0  0  0
 20 46  1  0  0  0  0
 21 25  1  0  0  0  0
 21 22  2  0  0  0  0
 22 23  1  0  0  0  0
 22 47  1  0  0  0  0
 23 24  2  0  0  0  0
 23 48  1  0  0  0  0
 24 25  1  0  0  0  0
 24 49  1  0  0  0  0
 27 28  2  0  0  0  0
 27 29  1  0  0  0  0
 29 33  1  0  0  0  0
 29 30  2  0  0  0  0
 30 31  1  0  0  0  0
 30 50  1  0  0  0  0
 31 32  2  0  0  0  0
 31 51  1  0  0  0  0
 32 33  1  0  0  0  0
 32 52  1  0  0  0  0
M  CHG  1  26  -1
M  END
$$$$
ZINC60013609
 OpenBabel01252620473D

 50 53  0  0  0  0  0  0  0  0999 V2000
   -0.0167    1.3783    0.0096 C   0  0  0  0  0  0  0  0  0  0  0  0
    1.1699    2.0887    0.0021 C   0  0  0  0  0  0  0  0  0  0  0  0
    2.3773    1.4187   -0.0135 C   0  0  0  0  0  0  0  0  0  0  0  0
    2.3993    0.0305   -0.0212 C   0  0  0  0  0  0  0  0  0  0  0  0
    1.2069   -0.6798   -0.0132 C   0  0  0  0  0  0  0  0  0  0  0  0
    0.0021   -0.0041    0.0020 C   0  0  0  0  0  0  0  0  0  0  0  0
    1.2265   -2.1866   -0.0220 C   0  0  0  0  0  0  0  0  0  0  0  0
    1.4864   -2.6796    1.3329 N   0  0  0  0  0  0  0  0  0  0  0  0
    1.5489   -4.0053    1.5673 C   0  0  0  0  0  0  0  0  0  0  0  0
    1.3895   -4.7920    0.6545 O   0  0  0  0  0  0  0  0  0  0  0  0
    1.8112   -4.5028    2.9346 C   0  0  0  0  0  0  0  0  0  0  0  0
    1.9890   -3.6021    3.9862 C   0  0  0  0  0  0  0  0  0  0  0  0
    2.2329   -4.0728    5.2596 C   0  0  0  0  0  0  0  0  0  0  0  0
    2.3021   -5.4345    5.4957 C   0  0  0  0  0  0  0  0  0  0  0  0
    2.1269   -6.3325    4.4581 C   0  0  0  0  0  0  0  0  0  0  0  0
    1.8765   -5.8749    3.1806 C   0  0  0  0  0  0  0  0  0  0  0  0
    2.2175   -8.0643    4.7695 S   0  0  0  0  0  0  0  0  0  0  0  0
    2.5611   -8.6813    3.5364 O   0  0  0  0  0  0  0  0  0  0  0  0
    2.9988   -8.2252    5.9455 O   0  0  0  0  0  0  0  0  0  0  0  0
    0.6875   -8.5752    5.1442 N   0  0  0  0  0  2  0  0  0  0  0  0
    0.4531   -9.9204    5.4415 C   0  0  0  0  0  0  0  0  0  0  0  0
    1.5033  -10.8292    5.4288 C   0  0  0  0  0  0  0  0  0  0  0  0
    1.2685  -12.1580    5.7236 C   0  0  0  0  0  0  0  0  0  0  0  0
   -0.0106  -12.5846    6.0308 C   0  0  0  0  0  0  0  0  0  0  0  0
   -1.0590  -11.6831    6.0446 C   0  0  0  0  0  0  0  0  0  0  0  0
   -0.8304  -10.3509    5.7563 C   0  0  0  0  0  0  0  0  0  0  0  0
   -2.1457   -9.2182    5.7802 Cl  0  0  0  0  0  0  0  0  0  0  0  0
    3.6239   -0.6527   -0.0375 N   0  0  0  0  0  0  0  0  0  0  0  0
    4.6742   -0.4227   -0.8881 C   0  0  0  0  0  0  0  0  0  0  0  0
    5.6426   -1.2979   -0.5576 C   0  0  0  0  0  0  0  0  0  0  0  0
    5.2013   -2.0441    0.4658 N   0  0  0  0  0  0  0  0  0  0  0  0
    3.9958   -1.6634    0.7903 C   0  0  0  0  0  0  0  0  0  0  0  0
   -0.9597    1.9044    0.0260 H   0  0  0  0  0  0  0  0  0  0  0  0
    1.1521    3.1686    0.0081 H   0  0  0  0  0  0  0  0  0  0  0  0
    3.3036    1.9740   -0.0201 H   0  0  0  0  0  0  0  0  0  0  0  0
   -0.9261   -0.5562    0.0083 H   0  0  0  0  0  0  0  0  0  0  0  0
    0.2621   -2.5605   -0.3658 H   0  0  0  0  0  0  0  0  0  0  0  0
    2.0116   -2.5359   -0.6925 H   0  0  0  0  0  0  0  0  0  0  0  0
    1.6136   -2.0518    2.0613 H   0  0  0  0  0  0  0  0  0  0  0  0
    1.9359   -2.5390    3.8030 H   0  0  0  0  0  0  0  0  0  0  0  0
    2.3706   -3.3770    6.0740 H   0  0  0  0  0  0  0  0  0  0  0  0
    2.4941   -5.7979    6.4945 H   0  0  0  0  0  0  0  0  0  0  0  0
    1.7358   -6.5770    2.3722 H   0  0  0  0  0  0  0  0  0  0  0  0
    2.5025  -10.4973    5.1883 H   0  0  0  0  0  0  0  0  0  0  0  0
    2.0849  -12.8649    5.7137 H   0  0  0  0  0  0  0  0  0  0  0  0
   -0.1912  -13.6244    6.2601 H   0  0  0  0  0  0  0  0  0  0  0  0
   -2.0568  -12.0197    6.2846 H   0  0  0  0  0  0  0  0  0  0  0  0
    4.7166    0.3181   -1.6729 H   0  0  0  0  0  0  0  0  0  0  0  0
    6.6078   -1.3844   -1.0344 H   0  0  0  0  0  0  0  0  0  0  0  0
    3.3937   -2.0834    1.5825 H   0  0  0  0  0  0  0  0  0  0  0  0
  1  6  2  0  0  0  0
  1  2  1  0  0  0  0
  1 33  1  0  0  0  0
  2  3  2  0  0  0  0
  2 34  1  0  0  0  0
  3  4  1  0  0  0  0
  3 35  1  0  0  0  0
  4  5  2  0  0  0  0
  4 28  1  0  0  0  0
  5  6  1  0  0  0  0
  5  7  1  0  0  0  0
  6 36  1  0  0  0  0
  7  8  1  0  0  0  0
  7 37  1  0  0  0  0
  7 38  1  0  0  0  0
  8  9  1  0  0  0  0
  8 39  1  0  0  0  0
  9 10  2  0  0  0  0
  9 11  1  0  0  0  0
 11 16  2  0  0  0  0
 11 12  1  0  0  0  0
 12 13  2  0  0  0  0
 12 40  1  0  0  0  0
 13 14  1  0  0  0  0
 13 41  1  0  0  0  0
 14 15  2  0  0  0  0
 14 42  1  0  0  0  0
 15 16  1  0  0  0  0
 15 17  1  0  0  0  0
 16 43  1  0  0  0  0
 17 18  2  0  0  0  0
 17 19  2  0  0  0  0
 17 20  1  0  0  0  0
 20 21  1  0  0  0  0
 21 26  2  0  0  0  0
 21 22  1  0  0  0  0
 22 23  2  0  0  0  0
 22 44  1  0  0  0  0
 23 24  1  0  0  0  0
 23 45  1  0  0  0  0
 24 25  2  0  0  0  0
 24 46  1  0  0  0  0
 25 26  1  0  0  0  0
 25 47  1  0  0  0  0
 26 27  1  0  0  0  0
 28 32  1  0  0  0  0
 28 29  1  0  0  0  0
 29 30  2  0  0  0  0
 29 48  1  0  0  0  0
 30 31  1  0  0  0  0
 30 49  1  0  0  0  0
 31 32  2  0  0  0  0
 32 50  1  0  0  0  0
M  END
$$$$
ZINC39380197
 OpenBabel01252620473D

 45 47  0  0  1  0  0  0  0  0999 V2000
   -0.0184    1.5028    0.0103 C   0  0  0  0  0  0  0  0  0  0  0  0
    0.0021   -0.0041    0.0020 C   0  0  0  0  0  0  0  0  0  0  0  0
   -1.1960   -0.7041    0.0040 C   0  0  0  0  0  0  0  0  0  0  0  0
   -1.1783   -2.2148    0.0596 C   0  0  2  0  0  0  0  0  0  0  0  0
   -1.1136   -2.5421    1.0973 H   0  0  0  0  0  0  0  0  0  0  0  0
    0.0371   -2.7149   -0.7113 C   0  0  1  0  0  0  0  0  0  0  0  0
   -0.1164   -2.4679   -1.7618 H   0  0  0  0  0  0  0  0  0  0  0  0
    1.2418   -1.9382   -0.2243 C   0  0  0  0  0  0  0  0  0  0  0  0
    2.3405   -2.6276    0.0374 N   0  0  0  0  0  0  0  0  0  0  0  0
    2.3607   -3.9561   -0.0374 C   0  0  0  0  0  0  0  0  0  0  0  0
    1.3051   -4.7276   -0.2532 N   0  0  0  0  0  0  0  0  0  0  0  0
    0.1080   -4.2222   -0.5960 C   0  0  0  0  0  0  0  0  0  0  0  0
   -0.8636   -4.9261   -0.7941 O   0  0  0  0  0  0  0  0  0  0  0  0
    3.9181   -4.7544    0.1666 S   0  0  0  0  0  0  0  0  0  0  0  0
    3.5318   -6.5190    0.0008 C   0  0  0  0  0  0  0  0  0  0  0  0
    4.7946   -7.3265    0.1568 C   0  0  0  0  0  0  0  0  0  0  0  0
    4.9299   -8.1409    1.1739 C   0  0  0  0  0  0  0  0  0  0  0  0
    1.1620   -0.6402   -0.0125 N   0  0  0  0  0  0  0  0  0  0  0  0
   -2.4373   -2.7589   -0.5649 C   0  0  0  0  0  0  0  0  0  0  0  0
   -3.4035   -3.5282   -0.0065 C   0  0  0  0  0  0  0  0  0  0  0  0
   -4.4832   -3.9137   -0.7788 C   0  0  0  0  0  0  0  0  0  0  0  0
   -4.5438   -3.5110   -2.0716 C   0  0  0  0  0  0  0  0  0  0  0  0
   -3.0469   -2.5510   -2.2299 S   0  0  0  0  0  0  0  0  0  0  0  0
   -2.3979   -0.0245   -0.0441 C   0  0  0  0  0  0  0  0  0  0  0  0
   -2.4090    1.3211   -0.0931 O   0  5  0  0  0  0  0  0  0  0  0  0
   -3.5582   -0.7078   -0.0420 O   0  0  0  0  0  0  0  0  0  0  0  0
   -4.7628    0.0591   -0.0933 C   0  0  0  0  0  0  0  0  0  0  0  0
   -5.9501   -0.8690   -0.0828 C   0  0  0  0  0  0  0  0  0  0  0  0
   -6.9756   -0.6119    0.6907 C   0  0  0  0  0  0  0  0  0  0  0  0
    1.0042    1.8801    0.0026 H   0  0  0  0  0  0  0  0  0  0  0  0
   -0.5455    1.8639   -0.8728 H   0  0  0  0  0  0  0  0  0  0  0  0
   -0.5286    1.8543    0.9071 H   0  0  0  0  0  0  0  0  0  0  0  0
    2.8178   -6.8087    0.7717 H   0  0  0  0  0  0  0  0  0  0  0  0
    3.1004   -6.7056   -0.9827 H   0  0  0  0  0  0  0  0  0  0  0  0
    5.5881   -7.2338   -0.5700 H   0  0  0  0  0  0  0  0  0  0  0  0
    4.1364   -8.2335    1.9007 H   0  0  0  0  0  0  0  0  0  0  0  0
    5.8349   -8.7196    1.2857 H   0  0  0  0  0  0  0  0  0  0  0  0
   -3.3308   -3.8357    1.0262 H   0  0  0  0  0  0  0  0  0  0  0  0
   -5.2666   -4.5269   -0.3584 H   0  0  0  0  0  0  0  0  0  0  0  0
   -5.3027   -3.7147   -2.8126 H   0  0  0  0  0  0  0  0  0  0  0  0
   -4.8102    0.7195    0.7726 H   0  0  0  0  0  0  0  0  0  0  0  0
   -4.7755    0.6551   -1.0059 H   0  0  0  0  0  0  0  0  0  0  0  0
   -5.9555   -1.7460   -0.7131 H   0  0  0  0  0  0  0  0  0  0  0  0
   -7.8264   -1.2771    0.6982 H   0  0  0  0  0  0  0  0  0  0  0  0
   -6.9702    0.2651    1.3209 H   0  0  0  0  0  0  0  0  0  0  0  0
  1  2  1  0  0  0  0
  1 30  1  0  0  0  0
  1 31  1  0  0  0  0
  1 32  1  0  0  0  0
  2 18  2  0  0  0  0
  2  3  1  0  0  0  0
  3  4  1  0  0  0  0
  3 24  2  0  0  0  0
  4  5  1  1  0  0  0
  4  6  1  0  0  0  0
  4 19  1  0  0  0  0
  6  7  1  6  0  0  0
  6 12  1  0  0  0  0
  6  8  1  0  0  0  0
  8  9  2  0  0  0  0
  8 18  1  0  0  0  0
  9 10  1  0  0  0  0
 10 11  2  0  0  0  0
 10 14  1  0  0  0  0
 11 12  1  0  0  0  0
 12 13  2  0  0  0  0
 14 15  1  0  0  0  0
 15 16  1  0  0  0  0
 15 33  1  0  0  0  0
 15 34  1  0  0  0  0
 16 17  2  0  0  0  0
 16 35  1  0  0  0  0
 17 36  1  0  0  0  0
 17 37  1  0  0  0  0
 19 23  1  0  0  0  0
 19 20  2  0  0  0  0
 20 21  1  0  0  0  0
 20 38  1  0  0  0  0
 21 22  2  0  0  0  0
 21 39  1  0  0  0  0
 22 23  1  0  0  0  0
 22 40  1  0  0  0  0
 24 25  1  0  0  0  0
 24 26  1  0  0  0  0
 26 27  1  0  0  0  0
 27 28  1  0  0  0  0
 27 41  1  0  0  0  0
 27 42  1  0  0  0  0
 28 29  2  0  0  0  0
 28 43  1  0  0  0  0
 29 44  1  0  0  0  0
 29 45  1  0  0  0  0
M  CHG  1  25  -1
M  END
$$$$
ZINC62119303
 OpenBabel01252620473D

 29 30  0  0  1  0  0  0  0  0999 V2000
   -0.0190    1.5473    0.0105 C   0  0  0  0  0  0  0  0  0  0  0  0
    1.4802    1.9134   -0.0018 C   0  0  0  0  0  0  0  0  0  0  0  0
    2.2074    0.7570   -0.5453 N   0  0  0  0  0  0  0  0  0  0  0  0
    1.2331   -0.2935   -0.8926 C   0  0  0  0  0  0  0  0  0  0  0  0
    0.0021   -0.0041    0.0020 C   0  0  2  0  0  0  0  0  0  0  0  0
    0.1485   -0.3984    1.0076 H   0  0  0  0  0  0  0  0  0  0  0  0
   -1.2563   -0.5580   -0.6150 C   0  0  0  0  0  0  0  0  0  0  0  0
   -2.1308    0.1993   -1.0003 O   0  0  0  0  0  0  0  0  0  0  0  0
   -1.3999   -1.7633   -0.7290 O   0  0  0  0  0  1  0  0  0  0  0  0
    3.5434    0.6717   -0.7009 C   0  0  0  0  0  0  0  0  0  0  0  0
    4.0372   -0.3355   -1.1622 O   0  0  0  0  0  0  0  0  0  0  0  0
    4.4239    1.8278   -0.3018 C   0  0  2  0  0  0  0  0  0  0  0  0
    4.1524    2.7235   -0.8604 H   0  0  0  0  0  0  0  0  0  0  0  0
    5.9145    1.4778   -0.5302 C   0  0  0  0  0  0  0  0  0  0  0  0
    6.5875    2.0883    0.7255 C   0  0  0  0  0  0  0  0  0  0  0  0
    5.6261    1.8450    1.7748 O   0  0  0  0  0  0  0  0  0  0  0  0
    4.3212    2.0857    1.2140 C   0  0  0  0  0  0  0  0  0  0  0  0
   -0.4999    1.9215    0.9143 H   0  0  0  0  0  0  0  0  0  0  0  0
   -0.5170    1.9312   -0.8798 H   0  0  0  0  0  0  0  0  0  0  0  0
    1.6437    2.7852   -0.6353 H   0  0  0  0  0  0  0  0  0  0  0  0
    1.8194    2.1211    1.0130 H   0  0  0  0  0  0  0  0  0  0  0  0
    0.9611   -0.2253   -1.9459 H   0  0  0  0  0  0  0  0  0  0  0  0
    1.6417   -1.2789   -0.6685 H   0  0  0  0  0  0  0  0  0  0  0  0
    6.0599    0.3981   -0.5632 H   0  0  0  0  0  0  0  0  0  0  0  0
    6.2894    1.9474   -1.4396 H   0  0  0  0  0  0  0  0  0  0  0  0
    7.5280    1.5816    0.9416 H   0  0  0  0  0  0  0  0  0  0  0  0
    6.7483    3.1582    0.5929 H   0  0  0  0  0  0  0  0  0  0  0  0
    4.0227    3.1183    1.3949 H   0  0  0  0  0  0  0  0  0  0  0  0
    3.5949    1.4047    1.6575 H   0  0  0  0  0  0  0  0  0  0  0  0
  1  5  1  0  0  0  0
  1  2  1  0  0  0  0
  1 18  1  0  0  0  0
  1 19  1  0  0  0  0
  2  3  1  0  0  0  0
  2 20  1  0  0  0  0
  2 21  1  0  0  0  0
  3  4  1  0  0  0  0
  3 10  1  0  0  0  0
  4  5  1  0  0  0  0
  4 22  1  0  0  0  0
  4 23  1  0  0  0  0
  5  6  1  1  0  0  0
  5  7  1  0  0  0  0
  7  8  2  0  0  0  0
  7  9  1  0  0  0  0
 10 11  2  0  0  0  0
 10 12  1  0  0  0  0
 12 13  1  6  0  0  0
 12 17  1  0  0  0  0
 12 14  1  0  0  0  0
 14 15  1  0  0  0  0
 14 24  1  0  0  0  0
 14 25  1  0  0  0  0
 15 16  1  0  0  0  0
 15 26  1  0  0  0  0
 15 27  1  0  0  0  0
 16 17  1  0  0  0  0
 17 28  1  0  0  0  0
 17 29  1  0  0  0  0
M  END
$$$$
ZINC50920077
 OpenBabel01252620473D

 31 32  0  0  1  0  0  0  0  0999 V2000
   -0.0163    1.3489    0.0095 C   0  0  0  0  0  0  0  0  0  0  0  0
    1.3085    1.7974   -0.0008 C   0  0  0  0  0  0  0  0  0  0  0  0
    2.0941    0.7512   -0.0139 N   0  0  0  0  0  0  0  0  0  0  0  0
    1.2927   -0.3978   -0.0124 N   0  0  0  0  0  0  0  0  0  0  0  0
    0.0021   -0.0041    0.0020 C   0  0  0  0  0  0  0  0  0  0  0  0
    1.7713   -1.7824   -0.0249 C   0  0  0  0  0  0  0  0  0  0  0  0
    2.7087   -1.9873   -1.2166 C   0  0  0  0  0  0  0  0  0  0  0  0
    3.1873   -3.3719   -1.2290 N   0  0  0  0  0  0  0  0  0  0  0  0
    4.4110   -3.6782   -0.4989 C   0  0  0  0  0  0  0  0  0  0  0  0
    5.0096   -4.9979   -0.9873 C   0  0  2  0  0  0  0  0  0  0  0  0
    5.3879   -4.8746   -2.0021 H   0  0  0  0  0  0  0  0  0  0  0  0
    3.9126   -6.0694   -0.9739 C   0  0  0  0  0  0  0  0  0  0  0  0
    2.8762   -5.7140   -2.0428 C   0  0  0  0  0  0  0  0  0  0  0  0
    2.4731   -4.2740   -1.9032 C   0  0  0  0  0  0  0  0  0  0  0  0
    1.4456   -3.9111   -2.4356 O   0  0  0  0  0  0  0  0  0  0  0  0
    6.1355   -5.4109   -0.0747 C   0  0  0  0  0  0  0  0  0  0  0  0
    6.3856   -6.5930    0.0885 O   0  0  0  0  0  0  0  0  0  0  0  0
    6.7963   -4.5629    0.5004 O   0  0  0  0  0  1  0  0  0  0  0  0
   -0.8980    1.9724    0.0252 H   0  0  0  0  0  0  0  0  0  0  0  0
    1.6279    2.8291    0.0017 H   0  0  0  0  0  0  0  0  0  0  0  0
   -0.8615   -0.6526    0.0071 H   0  0  0  0  0  0  0  0  0  0  0  0
    2.3093   -1.9892    0.9003 H   0  0  0  0  0  0  0  0  0  0  0  0
    0.9216   -2.4598   -0.1103 H   0  0  0  0  0  0  0  0  0  0  0  0
    2.1708   -1.7805   -2.1418 H   0  0  0  0  0  0  0  0  0  0  0  0
    3.5584   -1.3100   -1.1312 H   0  0  0  0  0  0  0  0  0  0  0  0
    5.1329   -2.8763   -0.6532 H   0  0  0  0  0  0  0  0  0  0  0  0
    4.1859   -3.7565    0.5647 H   0  0  0  0  0  0  0  0  0  0  0  0
    4.3485   -7.0437   -1.1949 H   0  0  0  0  0  0  0  0  0  0  0  0
    3.4356   -6.0939    0.0059 H   0  0  0  0  0  0  0  0  0  0  0  0
    3.3044   -5.8794   -3.0314 H   0  0  0  0  0  0  0  0  0  0  0  0
    1.9974   -6.3471   -1.9197 H   0  0  0  0  0  0  0  0  0  0  0  0
  1  5  2  0  0  0  0
  1  2  1  0  0  0  0
  1 19  1  0  0  0  0
  2  3  2  0  0  0  0
  2 20  1  0  0  0  0
  3  4  1  0  0  0  0
  4  5  1  0  0  0  0
  4  6  1  0  0  0  0
  5 21  1  0  0  0  0
  6  7  1  0  0  0  0
  6 22  1  0  0  0  0
  6 23  1  0  0  0  0
  7  8  1  0  0  0  0
  7 24  1  0  0  0  0
  7 25  1  0  0  0  0
  8 14  1  0  0  0  0
  8  9  1  0  0  0  0
  9 10  1  0  0  0  0
  9 26  1  0  0  0  0
  9 27  1  0  0  0  0
 10 11  1  6  0  0  0
 10 12  1  0  0  0  0
 10 16  1  0  0  0  0
 12 13  1  0  0  0  0
 12 28  1  0  0  0  0
 12 29  1  0  0  0  0
 13 14  1  0  0  0  0
 13 30  1  0  0  0  0
 13 31  1  0  0  0  0
 14 15  2  0  0  0  0
 16 17  2  0  0  0  0
 16 18  1  0  0  0  0
M  END
$$$$
ZINC05520143
 OpenBabel01252620473D

 29 30  0  0  0  0  0  0  0  0999 V2000
    3.6477    1.8642   -0.0228 C   0  0  0  0  0  0  0  0  0  0  0  0
    3.5757    3.2504   -0.0146 C   0  0  0  0  0  0  0  0  0  0  0  0
    2.3365    3.8674    0.0005 C   0  0  0  0  0  0  0  0  0  0  0  0
    1.2275    3.1587    0.0018 N   0  0  0  0  0  0  0  0  0  0  0  0
    1.2510    1.8284   -0.0001 C   0  0  0  0  0  0  0  0  0  0  0  0
    2.4686    1.1409   -0.0154 C   0  0  0  0  0  0  0  0  0  0  0  0
   -0.0126    1.0758    0.0080 C   0  0  0  0  0  0  0  0  0  0  0  0
   -1.1954    1.7375    0.0172 C   0  0  0  0  0  0  0  0  0  0  0  0
   -2.5768    1.2027    0.0147 C   0  0  0  0  0  0  0  0  0  0  0  0
   -2.8004    0.0070    0.0035 O   0  0  0  0  0  0  0  0  0  0  0  0
   -3.5542    2.0934    0.0298 N   0  0  0  0  0  0  0  0  0  0  0  0
   -3.3016    3.4178    0.0354 C   0  0  0  0  0  0  0  0  0  0  0  0
   -4.4214    4.7128    0.0467 S   0  0  0  0  0  0  0  0  0  0  0  0
   -1.5178    3.4958    0.0277 S   0  0  0  0  0  0  0  0  0  0  0  0
   -4.9441    1.6303    0.0338 C   0  0  0  0  0  0  0  0  0  0  0  0
   -5.4347    1.4770   -1.4073 C   0  0  0  0  0  0  0  0  0  0  0  0
   -7.1557    0.9036   -1.4023 S   0  0  0  0  0  0  0  0  0  0  0  0
   -7.2274   -0.4252   -0.9040 O   0  0  0  0  0  0  0  0  0  0  0  0
   -8.0079    1.9174   -0.8873 O   0  0  0  0  0  0  0  0  0  0  0  0
    4.6035    1.3613   -0.0342 H   0  0  0  0  0  0  0  0  0  0  0  0
    4.4788    3.8427   -0.0197 H   0  0  0  0  0  0  0  0  0  0  0  0
    2.2789    4.9459    0.0065 H   0  0  0  0  0  0  0  0  0  0  0  0
    2.4880    0.0611   -0.0217 H   0  0  0  0  0  0  0  0  0  0  0  0
    0.0021   -0.0041    0.0020 H   0  0  0  0  0  0  0  0  0  0  0  0
   -5.0050    0.6683    0.5426 H   0  0  0  0  0  0  0  0  0  0  0  0
   -5.5677    2.3569    0.5546 H   0  0  0  0  0  0  0  0  0  0  0  0
   -5.3738    2.4391   -1.9161 H   0  0  0  0  0  0  0  0  0  0  0  0
   -4.8111    0.7504   -1.9281 H   0  0  0  0  0  0  0  0  0  0  0  0
   -7.5337    0.7881   -2.8721 O   0  0  0  0  0  1  0  0  0  0  0  0
  1  6  2  0  0  0  0
  1  2  1  0  0  0  0
  1 20  1  0  0  0  0
  2  3  2  0  0  0  0
  2 21  1  0  0  0  0
  3  4  1  0  0  0  0
  3 22  1  0  0  0  0
  4  5  2  0  0  0  0
  5  6  1  0  0  0  0
  5  7  1  0  0  0  0
  6 23  1  0  0  0  0
  7  8  2  0  0  0  0
  7 24  1  0  0  0  0
  8 14  1  0  0  0  0
  8  9  1  0  0  0  0
  9 10  2  0  0  0  0
  9 11  1  0  0  0  0
 11 12  1  0  0  0  0
 11 15  1  0  0  0  0
 12 13  2  0  0  0  0
 12 14  1  0  0  0  0
 15 16  1  0  0  0  0
 15 25  1  0  0  0  0
 15 26  1  0  0  0  0
 16 17  1  0  0  0  0
 16 27  1  0  0  0  0
 16 28  1  0  0  0  0
 17 18  2  0  0  0  0
 17 19  2  0  0  0  0
 17 29  1  0  0  0  0
M  END
$$$$
ZINC08743822
 OpenBabel01252620473D

 60 63  0  0  1  0  0  0  0  0999 V2000
    2.4401   -4.1850    9.8049 C   0  0  0  0  0  0  0  0  0  0  0  0
    1.9828   -3.0666    8.8664 C   0  0  0  0  0  0  0  0  0  0  0  0
    0.6530   -3.3354    8.4175 O   0  0  0  0  0  0  0  0  0  0  0  0
    0.0933   -2.4320    7.5704 C   0  0  0  0  0  0  0  0  0  0  0  0
   -1.1949   -2.6304    7.0953 C   0  0  0  0  0  0  0  0  0  0  0  0
   -1.7618   -1.7104    6.2346 C   0  0  0  0  0  0  0  0  0  0  0  0
   -1.0463   -0.5927    5.8467 C   0  0  0  0  0  0  0  0  0  0  0  0
    0.2398   -0.3955    6.3144 C   0  0  0  0  0  0  0  0  0  0  0  0
    0.8091   -1.3097    7.1797 C   0  0  0  0  0  0  0  0  0  0  0  0
   -1.6671    0.4093    4.9078 C   0  0  1  0  0  0  0  0  0  0  0  0
   -2.5302   -0.0663    4.4190 H   0  0  0  0  0  0  0  0  0  0  0  0
   -2.0557    1.6584    5.6639 C   0  0  0  0  0  0  0  0  0  0  0  0
   -1.3524    2.6787    5.1201 C   0  0  0  0  0  0  0  0  0  0  0  0
   -0.5021    2.1559    4.0302 C   0  0  0  0  0  0  0  0  0  0  0  0
    0.2509    2.8251    3.3510 O   0  0  0  0  0  0  0  0  0  0  0  0
   -0.6877    0.8298    3.8989 N   0  0  0  0  0  0  0  0  0  0  0  0
   -0.0246   -0.0414    2.9255 C   0  0  0  0  0  0  0  0  0  0  0  0
   -0.8627   -0.1085    1.6472 C   0  0  0  0  0  0  0  0  0  0  0  0
   -0.1702   -1.0183    0.6305 C   0  0  0  0  0  0  0  0  0  0  0  0
   -0.9726   -1.0826   -0.5935 N   0  0  0  0  0  0  0  0  0  0  0  0
   -1.9603   -1.9889   -0.8705 C   0  0  0  0  0  0  0  0  0  0  0  0
   -2.4354   -1.6858   -2.0936 C   0  0  0  0  0  0  0  0  0  0  0  0
   -1.7500   -0.6291   -2.5548 N   0  0  0  0  0  0  0  0  0  0  0  0
   -0.8721   -0.2624   -1.6616 C   0  0  0  0  0  0  0  0  0  0  0  0
   -1.4135    3.9712    5.5155 O   0  5  0  0  0  0  0  0  0  0  0  0
   -3.0104    1.7477    6.7733 C   0  0  0  0  0  0  0  0  0  0  0  0
   -2.6285    2.0826    7.8792 O   0  0  0  0  0  0  0  0  0  0  0  0
   -4.4346    1.4315    6.5487 C   0  0  0  0  0  0  0  0  0  0  0  0
   -4.8986    1.1667    5.2565 C   0  0  0  0  0  0  0  0  0  0  0  0
   -6.2268    0.8679    5.0520 C   0  0  0  0  0  0  0  0  0  0  0  0
   -7.1084    0.8392    6.1269 C   0  0  0  0  0  0  0  0  0  0  0  0
   -6.6521    1.1067    7.4129 C   0  0  0  0  0  0  0  0  0  0  0  0
   -5.3246    1.4016    7.6268 C   0  0  0  0  0  0  0  0  0  0  0  0
   -8.4178    0.5490    5.9204 O   0  0  0  0  0  0  0  0  0  0  0  0
   -8.8192    0.2843    4.5747 C   0  0  0  0  0  0  0  0  0  0  0  0
    3.4637   -3.9781   10.1504 H   0  0  0  0  0  0  0  0  0  0  0  0
    2.4214   -5.1448    9.2679 H   0  0  0  0  0  0  0  0  0  0  0  0
    1.7640   -4.2362   10.6711 H   0  0  0  0  0  0  0  0  0  0  0  0
    2.0015   -2.1068    9.4034 H   0  0  0  0  0  0  0  0  0  0  0  0
    2.6589   -3.0154    8.0002 H   0  0  0  0  0  0  0  0  0  0  0  0
   -1.7540   -3.5036    7.3977 H   0  0  0  0  0  0  0  0  0  0  0  0
   -2.7647   -1.8642    5.8648 H   0  0  0  0  0  0  0  0  0  0  0  0
    0.7984    0.4759    6.0062 H   0  0  0  0  0  0  0  0  0  0  0  0
    1.8121   -1.1530    7.5482 H   0  0  0  0  0  0  0  0  0  0  0  0
    0.9711    0.3626    2.6904 H   0  0  0  0  0  0  0  0  0  0  0  0
    0.0801   -1.0513    3.3488 H   0  0  0  0  0  0  0  0  0  0  0  0
   -1.8584   -0.5126    1.8824 H   0  0  0  0  0  0  0  0  0  0  0  0
   -0.9674    0.9014    1.2240 H   0  0  0  0  0  0  0  0  0  0  0  0
    0.8255   -0.6142    0.3954 H   0  0  0  0  0  0  0  0  0  0  0  0
   -0.0655   -2.0282    1.0537 H   0  0  0  0  0  0  0  0  0  0  0  0
   -2.2959   -2.7913   -0.2301 H   0  0  0  0  0  0  0  0  0  0  0  0
   -3.2268   -2.2050   -2.6137 H   0  0  0  0  0  0  0  0  0  0  0  0
   -0.1795    0.5603   -1.7605 H   0  0  0  0  0  0  0  0  0  0  0  0
   -4.2154    1.1932    4.4206 H   0  0  0  0  0  0  0  0  0  0  0  0
   -6.5853    0.6600    4.0548 H   0  0  0  0  0  0  0  0  0  0  0  0
   -7.3401    1.0833    8.2450 H   0  0  0  0  0  0  0  0  0  0  0  0
   -4.9709    1.6092    8.6259 H   0  0  0  0  0  0  0  0  0  0  0  0
   -9.8969    0.0653    4.5499 H   0  0  0  0  0  0  0  0  0  0  0  0
   -8.2602   -0.5810    4.1888 H   0  0  0  0  0  0  0  0  0  0  0  0
   -8.6094    1.1648    3.9496 H   0  0  0  0  0  0  0  0  0  0  0  0
  1  2  1  0  0  0  0
  1 36  1  0  0  0  0
  1 37  1  0  0  0  0
  1 38  1  0  0  0  0
  2  3  1  0  0  0  0
  2 39  1  0  0  0  0
  2 40  1  0  0  0  0
  3  4  1  0  0  0  0
  4  9  2  0  0  0  0
  4  5  1  0  0  0  0
  5  6  2  0  0  0  0
  5 41  1  0  0  0  0
  6  7  1  0  0  0  0
  6 42  1  0  0  0  0
  7  8  2  0  0  0  0
  7 10  1  0  0  0  0
  8  9  1  0  0  0  0
  8 43  1  0  0  0  0
  9 44  1  0  0  0  0
 10 11  1  6  0  0  0
 10 16  1  0  0  0  0
 10 12  1  0  0  0  0
 12 13  2  0  0  0  0
 12 26  1  0  0  0  0
 13 14  1  0  0  0  0
 13 25  1  0  0  0  0
 14 15  2  0  0  0  0
 14 16  1  0  0  0  0
 16 17  1  0  0  0  0
 17 18  1  0  0  0  0
 17 45  1  0  0  0  0
 17 46  1  0  0  0  0
 18 19  1  0  0  0  0
 18 47  1  0  0  0  0
 18 48  1  0  0  0  0
 19 20  1  0  0  0  0
 19 49  1  0  0  0  0
 19 50  1  0  0  0  0
 20 24  1  0  0  0  0
 20 21  1  0  0  0  0
 21 22  2  0  0  0  0
 21 51  1  0  0  0  0
 22 23  1  0  0  0  0
 22 52  1  0  0  0  0
 23 24  2  0  0  0  0
 24 53  1  0  0  0  0
 26 27  2  0  0  0  0
 26 28  1  0  0  0  0
 28 33  2  0  0  0  0
 28 29  1  0  0  0  0
 29 30  2  0  0  0  0
 29 54  1  0  0  0  0
 30 31  1  0  0  0  0
 30 55  1  0  0  0  0
 31 32  2  0  0  0  0
 31 34  1  0  0  0  0
 32 33  1  0  0  0  0
 32 56  1  0  0  0  0
 33 57  1  0  0  0  0
 34 35  1  0  0  0  0
 35 58  1  0  0  0  0
 35 59  1  0  0  0  0
 35 60  1  0  0  0  0
M  CHG  1  25  -1
M  END
$$$$
ZINC43252250
 OpenBabel01252620473D

 76 78  0  0  1  0  0  0  0  0999 V2000
   -0.8632    1.2264    0.3384 C   0  0  0  0  0  0  0  0  0  0  0  0
   -0.5964   -0.2760    0.2268 C   0  0  0  0  0  0  0  0  0  0  0  0
   -0.0724   -0.8016    1.5648 C   0  0  0  0  0  0  0  0  0  0  0  0
    0.1944   -2.3040    1.4532 C   0  0  0  0  0  0  0  0  0  0  0  0
    0.7184   -2.8297    2.7912 C   0  0  1  0  0  0  0  0  0  0  0  0
    1.5942   -2.2537    3.0899 H   0  0  0  0  0  0  0  0  0  0  0  0
   -0.3714   -2.6901    3.8560 C   0  0  0  0  0  0  0  0  0  0  0  0
   -1.6005   -3.4992    3.4369 C   0  0  0  0  0  0  0  0  0  0  0  0
    1.1028   -4.3034    2.6449 C   0  0  0  0  0  0  0  0  0  0  0  0
    1.6977   -4.7794    3.8961 N   0  0  0  0  0  0  0  0  0  0  0  0
    2.0201   -6.0804    4.0369 C   0  0  0  0  0  0  0  0  0  0  0  0
    1.8170   -6.8593    3.1251 O   0  0  0  0  0  0  0  0  0  0  0  0
    2.6183   -6.5591    5.2950 C   0  0  0  0  0  0  0  0  0  0  0  0
    2.9082   -5.7771    6.4440 C   0  0  0  0  0  0  0  0  0  0  0  0
    3.4482   -6.6119    7.3678 C   0  0  0  0  0  0  0  0  0  0  0  0
    3.5023   -7.8754    6.8338 N   0  0  0  0  0  0  0  0  0  0  0  0
    2.9975   -7.8519    5.5830 C   0  0  0  0  0  0  0  0  0  0  0  0
    2.8731   -9.0355    4.6585 C   0  0  0  0  0  0  0  0  0  0  0  0
    4.0211   -9.0631    7.5166 C   0  0  0  0  0  0  0  0  0  0  0  0
    2.9202   -9.6730    8.3865 C   0  0  0  0  0  0  0  0  0  0  0  0
    3.4540  -10.8948    9.0889 C   0  0  0  0  0  0  0  0  0  0  0  0
    3.3538  -12.1357    8.4873 C   0  0  0  0  0  0  0  0  0  0  0  0
    3.8419  -13.2573    9.1293 C   0  0  0  0  0  0  0  0  0  0  0  0
    4.4334  -13.1378   10.3785 C   0  0  0  0  0  0  0  0  0  0  0  0
    4.5331  -11.8915   10.9798 C   0  0  0  0  0  0  0  0  0  0  0  0
    4.0481  -10.7722   10.3314 C   0  0  0  0  0  0  0  0  0  0  0  0
    4.9139  -14.2397   11.0123 O   0  0  0  0  0  0  0  0  0  0  0  0
    5.5100  -14.0416   12.2959 C   0  0  0  0  0  0  0  0  0  0  0  0
    3.9026   -6.2253    8.7221 C   0  0  0  0  0  0  0  0  0  0  0  0
    4.3185   -7.1875    9.6254 C   0  0  0  0  0  0  0  0  0  0  0  0
    4.7223   -6.2658   10.9748 S   0  0  0  0  0  0  0  0  0  0  0  0
    4.3326   -4.6573   10.3082 C   0  0  0  0  0  0  0  0  0  0  0  0
    3.9227   -4.9613    9.0844 N   0  0  0  0  0  0  0  0  0  0  0  0
    4.4427   -3.3372   10.9478 C   0  0  0  0  0  0  0  0  0  0  0  0
    4.1276   -2.3364   10.3341 O   0  0  0  0  0  0  0  0  0  0  0  0
    4.8930   -3.2374   12.2147 O   0  0  0  0  0  0  0  0  0  0  0  0
    4.9741   -1.9244   12.7729 C   0  0  0  0  0  0  0  0  0  0  0  0
    5.5020   -2.0112   14.2063 C   0  0  0  0  0  0  0  0  0  0  0  0
    0.0626    1.7419    0.5938 H   0  0  0  0  0  0  0  0  0  0  0  0
   -1.2365    1.6009   -0.6148 H   0  0  0  0  0  0  0  0  0  0  0  0
   -1.6059    1.4068    1.1156 H   0  0  0  0  0  0  0  0  0  0  0  0
   -1.5222   -0.7915   -0.0286 H   0  0  0  0  0  0  0  0  0  0  0  0
    0.1463   -0.4564   -0.5504 H   0  0  0  0  0  0  0  0  0  0  0  0
    0.8534   -0.2861    1.8202 H   0  0  0  0  0  0  0  0  0  0  0  0
   -0.8151   -0.6212    2.3420 H   0  0  0  0  0  0  0  0  0  0  0  0
   -0.7314   -2.8195    1.1978 H   0  0  0  0  0  0  0  0  0  0  0  0
    0.9371   -2.4844    0.6760 H   0  0  0  0  0  0  0  0  0  0  0  0
    0.0021   -3.0641    4.8093 H   0  0  0  0  0  0  0  0  0  0  0  0
   -0.6455   -1.6403    3.9598 H   0  0  0  0  0  0  0  0  0  0  0  0
   -2.3780   -3.3971    4.1939 H   0  0  0  0  0  0  0  0  0  0  0  0
   -1.9719   -3.1273    2.4820 H   0  0  0  0  0  0  0  0  0  0  0  0
   -1.3270   -4.5495    3.3363 H   0  0  0  0  0  0  0  0  0  0  0  0
    0.2124   -4.8904    2.4195 H   0  0  0  0  0  0  0  0  0  0  0  0
    1.8242   -4.4120    1.8351 H   0  0  0  0  0  0  0  0  0  0  0  0
    1.8596   -4.1582    4.6233 H   0  0  0  0  0  0  0  0  0  0  0  0
    2.7325   -4.7179    6.5607 H   0  0  0  0  0  0  0  0  0  0  0  0
    3.7816   -9.1288    4.0634 H   0  0  0  0  0  0  0  0  0  0  0  0
    2.7289   -9.9420    5.2462 H   0  0  0  0  0  0  0  0  0  0  0  0
    2.0187   -8.8916    3.9970 H   0  0  0  0  0  0  0  0  0  0  0  0
    4.3466   -9.7944    6.7767 H   0  0  0  0  0  0  0  0  0  0  0  0
    4.8661   -8.7810    8.1447 H   0  0  0  0  0  0  0  0  0  0  0  0
    2.5948   -8.9417    9.1264 H   0  0  0  0  0  0  0  0  0  0  0  0
    2.0752   -9.9551    7.7584 H   0  0  0  0  0  0  0  0  0  0  0  0
    2.8932  -12.2282    7.5149 H   0  0  0  0  0  0  0  0  0  0  0  0
    3.7627  -14.2264    8.6593 H   0  0  0  0  0  0  0  0  0  0  0  0
    4.9932  -11.7959   11.9523 H   0  0  0  0  0  0  0  0  0  0  0  0
    4.1295   -9.8012   10.7971 H   0  0  0  0  0  0  0  0  0  0  0  0
    5.8510  -14.9990   12.6898 H   0  0  0  0  0  0  0  0  0  0  0  0
    6.3590  -13.3644   12.2016 H   0  0  0  0  0  0  0  0  0  0  0  0
    4.7749  -13.6102   12.9752 H   0  0  0  0  0  0  0  0  0  0  0  0
    4.3702   -8.2587    9.4972 H   0  0  0  0  0  0  0  0  0  0  0  0
    5.6505   -1.3157   12.1728 H   0  0  0  0  0  0  0  0  0  0  0  0
    3.9835   -1.4697   12.7774 H   0  0  0  0  0  0  0  0  0  0  0  0
    4.8256   -2.6199   14.8063 H   0  0  0  0  0  0  0  0  0  0  0  0
    6.4927   -2.4659   14.2017 H   0  0  0  0  0  0  0  0  0  0  0  0
    5.5639   -1.0097   14.6320 H   0  0  0  0  0  0  0  0  0  0  0  0
  1  2  1  0  0  0  0
  1 39  1  0  0  0  0
  1 40  1  0  0  0  0
  1 41  1  0  0  0  0
  2  3  1  0  0  0  0
  2 42  1  0  0  0  0
  2 43  1  0  0  0  0
  3  4  1  0  0  0  0
  3 44  1  0  0  0  0
  3 45  1  0  0  0  0
  4  5  1  0  0  0  0
  4 46  1  0  0  0  0
  4 47  1  0  0  0  0
  5  6  1  1  0  0  0
  5  7  1  0  0  0  0
  5  9  1  0  0  0  0
  7  8  1  0  0  0  0
  7 48  1  0  0  0  0
  7 49  1  0  0  0  0
  8 50  1  0  0  0  0
  8 51  1  0  0  0  0
  8 52  1  0  0  0  0
  9 10  1  0  0  0  0
  9 53  1  0  0  0  0
  9 54  1  0  0  0  0
 10 11  1  0  0  0  0
 10 55  1  0  0  0  0
 11 12  2  0  0  0  0
 11 13  1  0  0  0  0
 13 17  2  0  0  0  0
 13 14  1  0  0  0  0
 14 15  2  0  0  0  0
 14 56  1  0  0  0  0
 15 16  1  0  0  0  0
 15 29  1  0  0  0  0
 16 17  1  0  0  0  0
 16 19  1  0  0  0  0
 17 18  1  0  0  0  0
 18 57  1  0  0  0  0
 18 58  1  0  0  0  0
 18 59  1  0  0  0  0
 19 20  1  0  0  0  0
 19 60  1  0  0  0  0
 19 61  1  0  0  0  0
 20 21  1  0  0  0  0
 20 62  1  0  0  0  0
 20 63  1  0  0  0  0
 21 26  2  0  0  0  0
 21 22  1  0  0  0  0
 22 23  2  0  0  0  0
 22 64  1  0  0  0  0
 23 24  1  0  0  0  0
 23 65  1  0  0  0  0
 24 25  2  0  0  0  0
 24 27  1  0  0  0  0
 25 26  1  0  0  0  0
 25 66  1  0  0  0  0
 26 67  1  0  0  0  0
 27 28  1  0  0  0  0
 28 68  1  0  0  0  0
 28 69  1  0  0  0  0
 28 70  1  0  0  0  0
 29 33  1  0  0  0  0
 29 30  2  0  0  0  0
 30 31  1  0  0  0  0
 30 71  1  0  0  0  0
 31 32  1  0  0  0  0
 32 33  2  0  0  0  0
 32 34  1  0  0  0  0
 34 35  2  0  0  0  0
 34 36  1  0  0  0  0
 36 37  1  0  0  0  0
 37 38  1  0  0  0  0
 37 72  1  0  0  0  0
 37 73  1  0  0  0  0
 38 74  1  0  0  0  0
 38 75  1  0  0  0  0
 38 76  1  0  0  0  0
M  END
$$$$
ZINC45622483
 OpenBabel01252620473D

 31 32  0  0  1  0  0  0  0  0999 V2000
   -0.0167    1.3795    0.0096 C   0  0  0  0  0  0  0  0  0  0  0  0
    1.1679    2.0938    0.0022 C   0  0  0  0  0  0  0  0  0  0  0  0
    2.3780    1.4292   -0.0130 C   0  0  0  0  0  0  0  0  0  0  0  0
    2.4035    0.0324   -0.0208 C   0  0  0  0  0  0  0  0  0  0  0  0
    1.2039   -0.6811   -0.0131 C   0  0  0  0  0  0  0  0  0  0  0  0
    0.0021   -0.0041    0.0020 C   0  0  0  0  0  0  0  0  0  0  0  0
   -1.2707   -0.7596    0.0106 N   0  0  0  0  0  4  0  0  0  0  0  0
   -2.3249   -0.1678    0.0243 O   0  0  0  0  0  0  0  0  0  0  0  0
   -1.2562   -1.9685    0.0040 O   0  5  0  0  0  0  0  0  0  0  0  0
    3.6947   -0.6864   -0.0375 C   0  0  0  0  0  0  0  0  0  0  0  0
    4.7378   -0.0622   -0.0445 O   0  0  0  0  0  0  0  0  0  0  0  0
    3.7157   -2.0340   -0.0449 N   0  0  0  0  0  0  0  0  0  0  0  0
    4.9956   -2.7465   -0.0615 C   0  0  1  0  0  0  0  0  0  0  0  0
    4.7239   -4.2445    0.0698 C   0  0  0  0  0  0  0  0  0  0  0  0
    4.5529   -4.8863   -1.3354 C   0  0  0  0  0  0  0  0  0  0  0  0
    5.8668   -3.9699   -2.2542 S   0  0  0  0  0  0  0  0  0  0  0  0
    5.7537   -2.3703   -1.3495 C   0  0  0  0  0  0  0  0  0  0  0  0
    5.8100   -2.3011    1.1257 C   0  0  0  0  0  0  0  0  0  0  0  0
    5.3531   -1.4833    1.9061 O   0  0  0  0  0  0  0  0  0  0  0  0
    6.9257   -2.7585    1.3059 O   0  0  0  0  0  1  0  0  0  0  0  0
    3.9965    2.4070   -0.0238 Br  0  0  0  0  0  0  0  0  0  0  0  0
   -0.9606    1.9041    0.0260 H   0  0  0  0  0  0  0  0  0  0  0  0
    1.1461    3.1735    0.0078 H   0  0  0  0  0  0  0  0  0  0  0  0
    1.2166   -1.7610   -0.0194 H   0  0  0  0  0  0  0  0  0  0  0  0
    2.8834   -2.5321   -0.0393 H   0  0  0  0  0  0  0  0  0  0  0  0
    5.5598   -4.7190    0.5837 H   0  0  0  0  0  0  0  0  0  0  0  0
    3.8130   -4.3963    0.6489 H   0  0  0  0  0  0  0  0  0  0  0  0
    4.7580   -5.9566   -1.3110 H   0  0  0  0  0  0  0  0  0  0  0  0
    3.5645   -4.6830   -1.7475 H   0  0  0  0  0  0  0  0  0  0  0  0
    5.1890   -1.6398   -1.9288 H   0  0  0  0  0  0  0  0  0  0  0  0
    6.7478   -1.9905   -1.1138 H   0  0  0  0  0  0  0  0  0  0  0  0
  1  6  2  0  0  0  0
  1  2  1  0  0  0  0
  1 22  1  0  0  0  0
  2  3  2  0  0  0  0
  2 23  1  0  0  0  0
  3  4  1  0  0  0  0
  3 21  1  0  0  0  0
  4  5  2  0  0  0  0
  4 10  1  0  0  0  0
  5  6  1  0  0  0  0
  5 24  1  0  0  0  0
  6  7  1  0  0  0  0
  7  8  2  0  0  0  0
  7  9  1  0  0  0  0
 10 11  2  0  0  0  0
 10 12  1  0  0  0  0
 12 13  1  0  0  0  0
 12 25  1  0  0  0  0
 13 17  1  0  0  0  0
 13 14  1  0  0  0  0
 13 18  1  1  0  0  0
 14 15  1  0  0  0  0
 14 26  1  0  0  0  0
 14 27  1  0  0  0  0
 15 16  1  0  0  0  0
 15 28  1  0  0  0  0
 15 29  1  0  0  0  0
 16 17  1  0  0  0  0
 17 30  1  0  0  0  0
 17 31  1  0  0  0  0
 18 19  2  0  0  0  0
 18 20  1  0  0  0  0
M  CHG  1   9  -1
M  END
$$$$
ZINC15958616
 OpenBabel01252620473D

 79 82  0  0  1  0  0  0  0  0999 V2000
    7.9756    3.0703    2.3848 C   0  0  0  0  0  0  0  0  0  0  0  0
    7.0602    4.1320    1.7717 C   0  0  1  0  0  0  0  0  0  0  0  0
    6.6367    5.1013    2.8263 C   0  0  0  0  0  0  0  0  0  0  0  0
    7.8751    5.7859    3.4145 C   0  0  0  0  0  0  0  0  0  0  0  0
    8.6350    6.4602    2.2993 C   0  0  0  0  0  0  0  0  0  0  0  0
    9.3648    7.5012    2.5480 N   0  0  0  0  0  0  0  0  0  0  0  0
    9.4501    8.0071    3.8677 O   0  0  0  0  0  0  0  0  0  0  0  0
   10.2889    9.1569    3.9964 C   0  0  0  0  0  0  0  0  0  0  0  0
   10.3062    9.6077    5.4342 C   0  0  0  0  0  0  0  0  0  0  0  0
    9.6636    9.0039    6.2669 O   0  0  0  0  0  0  0  0  0  0  0  0
   11.0359   10.6819    5.7949 N   0  0  0  0  0  0  0  0  0  0  0  0
   11.0527   11.1202    7.1927 C   0  0  0  0  0  0  0  0  0  0  0  0
   11.9508   12.3512    7.3304 C   0  0  0  0  0  0  0  0  0  0  0  0
   11.9684   12.8089    8.7903 C   0  0  0  0  0  0  0  0  0  0  0  0
   12.8665   14.0400    8.9280 C   0  0  0  0  0  0  0  0  0  0  0  0
   12.8838   14.4908   10.3658 C   0  0  0  0  0  0  0  0  0  0  0  0
   12.2435   13.8892   11.1953 O   0  0  0  0  0  0  0  0  0  0  0  0
    8.5454    5.9344    0.9313 C   0  0  0  0  0  0  0  0  0  0  0  0
    7.8252    4.8568    0.6604 C   0  0  0  0  0  0  0  0  0  0  0  0
    7.7295    4.3312   -0.7511 C   0  0  0  0  0  0  0  0  0  0  0  0
    6.2737    4.3594   -1.1985 C   0  0  0  0  0  0  0  0  0  0  0  0
    5.3059    4.3005   -0.0216 C   0  0  2  0  0  0  0  0  0  0  0  0
    5.1210    5.3128    0.3377 H   0  0  0  0  0  0  0  0  0  0  0  0
    5.8362    3.4526    1.1427 C   0  0  2  0  0  0  0  0  0  0  0  0
    6.1343    2.4833    0.7430 H   0  0  0  0  0  0  0  0  0  0  0  0
    4.8032    3.2393    2.2481 C   0  0  1  0  0  0  0  0  0  0  0  0
    4.6355    4.1861    2.7615 H   0  0  0  0  0  0  0  0  0  0  0  0
    3.4632    2.7237    1.7072 C   0  0  0  0  0  0  0  0  0  0  0  0
    2.9849    3.7362    0.6815 C   0  0  1  0  0  0  0  0  0  0  0  0
    3.9980    3.6871   -0.4952 C   0  0  1  0  0  0  0  0  0  0  0  0
    4.1581    2.6574   -0.8150 H   0  0  0  0  0  0  0  0  0  0  0  0
    3.2545    4.4717   -1.5820 C   0  0  0  0  0  0  0  0  0  0  0  0
    1.7957    3.9567   -1.4454 C   0  0  0  0  0  0  0  0  0  0  0  0
    1.6517    3.4316    0.0047 C   0  0  1  0  0  0  0  0  0  0  0  0
    1.3965    1.9464   -0.0008 C   0  0  0  0  0  0  0  0  0  0  0  0
    1.8316    1.2623   -0.8958 O   0  0  0  0  0  0  0  0  0  0  0  0
    0.5983    1.3149    1.1105 C   0  0  0  0  0  0  0  0  0  0  0  0
    0.4945   -0.0920    0.8824 O   0  0  0  0  0  0  0  0  0  0  0  0
    0.5894    4.1132    0.6747 O   0  0  0  0  0  0  0  0  0  0  0  0
    2.9542    5.1407    1.2877 C   0  0  0  0  0  0  0  0  0  0  0  0
    5.3196    2.2912    3.1843 O   0  0  0  0  0  0  0  0  0  0  0  0
    8.3032    2.3802    1.6074 H   0  0  0  0  0  0  0  0  0  0  0  0
    8.8445    3.5538    2.8313 H   0  0  0  0  0  0  0  0  0  0  0  0
    7.4311    2.5207    3.1527 H   0  0  0  0  0  0  0  0  0  0  0  0
    6.1093    4.5623    3.6133 H   0  0  0  0  0  0  0  0  0  0  0  0
    5.9762    5.8520    2.3924 H   0  0  0  0  0  0  0  0  0  0  0  0
    8.5118    5.0413    3.8921 H   0  0  0  0  0  0  0  0  0  0  0  0
    7.5688    6.5301    4.1497 H   0  0  0  0  0  0  0  0  0  0  0  0
   11.3018    8.9046    3.6824 H   0  0  0  0  0  0  0  0  0  0  0  0
    9.9033    9.9600    3.3684 H   0  0  0  0  0  0  0  0  0  0  0  0
   11.5499   11.1649    5.1290 H   0  0  0  0  0  0  0  0  0  0  0  0
   10.0399   11.3724    7.5066 H   0  0  0  0  0  0  0  0  0  0  0  0
   11.4384   10.3171    7.8207 H   0  0  0  0  0  0  0  0  0  0  0  0
   12.9637   12.0990    7.0165 H   0  0  0  0  0  0  0  0  0  0  0  0
   11.5652   13.1544    6.7025 H   0  0  0  0  0  0  0  0  0  0  0  0
   10.9555   13.0612    9.1042 H   0  0  0  0  0  0  0  0  0  0  0  0
   12.3540   12.0058    9.4182 H   0  0  0  0  0  0  0  0  0  0  0  0
   13.8793   13.7877    8.6140 H   0  0  0  0  0  0  0  0  0  0  0  0
   12.4808   14.8431    8.3000 H   0  0  0  0  0  0  0  0  0  0  0  0
    9.0753    6.4341    0.1339 H   0  0  0  0  0  0  0  0  0  0  0  0
    8.1009    3.3069   -0.7842 H   0  0  0  0  0  0  0  0  0  0  0  0
    8.3265    4.9567   -1.4147 H   0  0  0  0  0  0  0  0  0  0  0  0
    6.0881    3.5067   -1.8517 H   0  0  0  0  0  0  0  0  0  0  0  0
    6.0938    5.2770   -1.7585 H   0  0  0  0  0  0  0  0  0  0  0  0
    2.7395    2.6450    2.5185 H   0  0  0  0  0  0  0  0  0  0  0  0
    3.6016    1.7514    1.2344 H   0  0  0  0  0  0  0  0  0  0  0  0
    3.6551    4.2385   -2.5685 H   0  0  0  0  0  0  0  0  0  0  0  0
    3.3051    5.5430   -1.3873 H   0  0  0  0  0  0  0  0  0  0  0  0
    1.6160    3.1492   -2.1552 H   0  0  0  0  0  0  0  0  0  0  0  0
    1.0933    4.7718   -1.6196 H   0  0  0  0  0  0  0  0  0  0  0  0
   -0.3169    1.7172    1.1338 H   0  0  0  0  0  0  0  0  0  0  0  0
    1.0977    1.4927    2.0629 H   0  0  0  0  0  0  0  0  0  0  0  0
   -0.0077   -0.5644    1.5605 H   0  0  0  0  0  0  0  0  0  0  0  0
   -0.2807    3.9728    0.2768 H   0  0  0  0  0  0  0  0  0  0  0  0
    2.1717    5.1927    2.0447 H   0  0  0  0  0  0  0  0  0  0  0  0
    3.9185    5.3597    1.7463 H   0  0  0  0  0  0  0  0  0  0  0  0
    2.7505    5.8703    0.5039 H   0  0  0  0  0  0  0  0  0  0  0  0
    4.7415    2.1329    3.9431 H   0  0  0  0  0  0  0  0  0  0  0  0
   13.6105   15.5607   10.7250 O   0  0  0  0  0  1  0  0  0  0  0  0
  1 42  1  0  0  0  0
  1 43  1  0  0  0  0
  1 44  1  0  0  0  0
  2  1  1  1  0  0  0
  2 19  1  0  0  0  0
  2 24  1  0  0  0  0
  2  3  1  0  0  0  0
  3  4  1  0  0  0  0
  3 45  1  0  0  0  0
  3 46  1  0  0  0  0
  4  5  1  0  0  0  0
  4 47  1  0  0  0  0
  4 48  1  0  0  0  0
  5  6  2  0  0  0  0
  5 18  1  0  0  0  0
  6  7  1  0  0  0  0
  7  8  1  0  0  0  0
  8  9  1  0  0  0  0
  8 49  1  0  0  0  0
  8 50  1  0  0  0  0
  9 10  2  0  0  0  0
  9 11  1  0  0  0  0
 11 12  1  0  0  0  0
 11 51  1  0  0  0  0
 12 13  1  0  0  0  0
 12 52  1  0  0  0  0
 12 53  1  0  0  0  0
 13 14  1  0  0  0  0
 13 54  1  0  0  0  0
 13 55  1  0  0  0  0
 14 15  1  0  0  0  0
 14 56  1  0  0  0  0
 14 57  1  0  0  0  0
 15 16  1  0  0  0  0
 15 58  1  0  0  0  0
 15 59  1  0  0  0  0
 16 17  2  0  0  0  0
 16 79  1  0  0  0  0
 18 19  2  0  0  0  0
 18 60  1  0  0  0  0
 19 20  1  0  0  0  0
 20 21  1  0  0  0  0
 20 61  1  0  0  0  0
 20 62  1  0  0  0  0
 21 22  1  0  0  0  0
 21 63  1  0  0  0  0
 21 64  1  0  0  0  0
 22 23  1  1  0  0  0
 22 30  1  0  0  0  0
 22 24  1  0  0  0  0
 24 25  1  6  0  0  0
 24 26  1  0  0  0  0
 26 27  1  1  0  0  0
 26 28  1  0  0  0  0
 26 41  1  0  0  0  0
 28 29  1  0  0  0  0
 28 65  1  0  0  0  0
 28 66  1  0  0  0  0
 29 34  1  0  0  0  0
 29 30  1  0  0  0  0
 29 40  1  1  0  0  0
 30 31  1  6  0  0  0
 30 32  1  0  0  0  0
 32 33  1  0  0  0  0
 32 67  1  0  0  0  0
 32 68  1  0  0  0  0
 33 34  1  0  0  0  0
 33 69  1  0  0  0  0
 33 70  1  0  0  0  0
 34 35  1  6  0  0  0
 34 39  1  0  0  0  0
 35 36  2  0  0  0  0
 35 37  1  0  0  0  0
 37 38  1  0  0  0  0
 37 71  1  0  0  0  0
 37 72  1  0  0  0  0
 38 73  1  0  0  0  0
 39 74  1  0  0  0  0
 40 75  1  0  0  0  0
 40 76  1  0  0  0  0
 40 77  1  0  0  0  0
 41 78  1  0  0  0  0
M  END
$$$$
ZINC12928177
 OpenBabel01252620473D

 32 33  0  0  0  0  0  0  0  0999 V2000
    0.1667   -3.5103   -2.3383 C   0  0  0  0  0  0  0  0  0  0  0  0
    0.2299   -3.8455   -3.6772 C   0  0  0  0  0  0  0  0  0  0  0  0
    0.2508   -5.1781   -4.0586 C   0  0  0  0  0  0  0  0  0  0  0  0
    0.2025   -6.1772   -3.0958 C   0  0  0  0  0  0  0  0  0  0  0  0
    0.1449   -5.8434   -1.7562 C   0  0  0  0  0  0  0  0  0  0  0  0
    0.1240   -4.5083   -1.3742 C   0  0  0  0  0  0  0  0  0  0  0  0
    0.0594   -4.1692   -0.0181 N   0  0  0  0  0  2  0  0  0  0  0  0
   -1.0216   -4.9343    0.9762 S   0  0  0  0  0  0  0  0  0  0  0  0
   -0.8201   -6.3296    0.7980 O   0  0  0  0  0  0  0  0  0  0  0  0
   -0.9198   -4.3061    2.2467 O   0  0  0  0  0  0  0  0  0  0  0  0
   -2.6350   -4.5763    0.3652 C   0  0  0  0  0  0  0  0  0  0  0  0
   -3.2741   -3.4091    0.7462 C   0  0  0  0  0  0  0  0  0  0  0  0
   -4.5381   -3.1169    0.2673 C   0  0  0  0  0  0  0  0  0  0  0  0
   -5.1762   -3.9950   -0.5865 C   0  0  0  0  0  0  0  0  0  0  0  0
   -4.5389   -5.1776   -0.9703 C   0  0  0  0  0  0  0  0  0  0  0  0
   -3.2599   -5.4624   -0.4867 C   0  0  0  0  0  0  0  0  0  0  0  0
   -5.2140   -6.1216   -1.8833 C   0  0  0  0  0  0  0  0  0  0  0  0
   -6.3264   -5.8709   -2.3023 O   0  0  0  0  0  0  0  0  0  0  0  0
   -4.5963   -7.2607   -2.2517 O   0  0  0  0  0  1  0  0  0  0  0  0
   -6.9075   -3.5975   -1.2349 Br  0  0  0  0  0  0  0  0  0  0  0  0
    0.2215   -7.8457   -3.5746 Cl  0  0  0  0  0  0  0  0  0  0  0  0
    0.3132   -5.5070   -5.3770 O   0  0  0  0  0  0  0  0  0  0  0  0
    0.3544   -4.4284   -6.3134 C   0  0  0  0  0  0  0  0  0  0  0  0
   -0.7974   -3.6465   -6.1751 F   0  0  0  0  0  0  0  0  0  0  0  0
    1.4847   -3.6412   -6.0686 F   0  0  0  0  0  0  0  0  0  0  0  0
    0.1508   -2.4720   -2.0418 H   0  0  0  0  0  0  0  0  0  0  0  0
    0.2628   -3.0689   -4.4270 H   0  0  0  0  0  0  0  0  0  0  0  0
    0.1113   -6.6204   -1.0068 H   0  0  0  0  0  0  0  0  0  0  0  0
   -2.7815   -2.7212    1.4175 H   0  0  0  0  0  0  0  0  0  0  0  0
   -5.0292   -2.2024    0.5655 H   0  0  0  0  0  0  0  0  0  0  0  0
   -2.7616   -6.3749   -0.7790 H   0  0  0  0  0  0  0  0  0  0  0  0
    0.4033   -4.8113   -7.3434 H   0  0  0  0  0  0  0  0  0  0  0  0
  1  6  2  0  0  0  0
  1  2  1  0  0  0  0
  1 26  1  0  0  0  0
  2  3  2  0  0  0  0
  2 27  1  0  0  0  0
  3  4  1  0  0  0  0
  3 22  1  0  0  0  0
  4  5  2  0  0  0  0
  4 21  1  0  0  0  0
  5  6  1  0  0  0  0
  5 28  1  0  0  0  0
  6  7  1  0  0  0  0
  7  8  1  0  0  0  0
  8  9  2  0  0  0  0
  8 10  2  0  0  0  0
  8 11  1  0  0  0  0
 11 16  2  0  0  0  0
 11 12  1  0  0  0  0
 12 13  2  0  0  0  0
 12 29  1  0  0  0  0
 13 14  1  0  0  0  0
 13 30  1  0  0  0  0
 14 15  2  0  0  0  0
 14 20  1  0  0  0  0
 15 16  1  0  0  0  0
 15 17  1  0  0  0  0
 16 31  1  0  0  0  0
 17 18  2  0  0  0  0
 17 19  1  0  0  0  0
 22 23  1  0  0  0  0
 23 24  1  0  0  0  0
 23 25  1  0  0  0  0
 23 32  1  0  0  0  0
M  END
$$$$
ZINC65836373
 OpenBabel01252620473D

 47 49  0  0  0  0  0  0  0  0999 V2000
    0.0313    1.5200   -0.0160 C   0  0  0  0  0  0  0  0  0  0  0  0
    0.0432   -0.0100   -0.0199 C   0  0  0  0  0  0  0  0  0  0  0  0
    0.8603   -0.6044   -1.5264 S   0  0  0  0  0  0  0  0  0  0  0  0
    0.0707   -0.2943   -2.6664 O   0  0  0  0  0  0  0  0  0  0  0  0
    2.2435   -0.2804   -1.4933 O   0  0  0  0  0  0  0  0  0  0  0  0
    0.8103   -2.2559   -1.4143 N   0  0  0  0  0  2  0  0  0  0  0  0
    1.3596   -3.0372   -2.4225 C   0  0  0  0  0  0  0  0  0  0  0  0
    1.9572   -2.4371   -3.5241 C   0  0  0  0  0  0  0  0  0  0  0  0
    2.5026   -3.2155   -4.5241 C   0  0  0  0  0  0  0  0  0  0  0  0
    2.4597   -4.5984   -4.4395 C   0  0  0  0  0  0  0  0  0  0  0  0
    1.8716   -5.2115   -3.3552 C   0  0  0  0  0  0  0  0  0  0  0  0
    1.3193   -4.4373   -2.3312 C   0  0  0  0  0  0  0  0  0  0  0  0
    0.6939   -5.0868   -1.1652 C   0  0  0  0  0  0  0  0  0  0  0  0
    0.2107   -4.4094   -0.2783 O   0  0  0  0  0  0  0  0  0  0  0  0
    0.6575   -6.4315   -1.0819 N   0  0  0  0  0  0  0  0  0  0  0  0
    0.1488   -7.0475    0.0660 C   0  0  0  0  0  0  0  0  0  0  0  0
   -0.9166   -6.4737    0.7492 C   0  0  0  0  0  0  0  0  0  0  0  0
   -1.4195   -7.0816    1.8831 C   0  0  0  0  0  0  0  0  0  0  0  0
   -0.8655   -8.2615    2.3416 C   0  0  0  0  0  0  0  0  0  0  0  0
    0.1994   -8.8404    1.6630 C   0  0  0  0  0  0  0  0  0  0  0  0
    0.7036   -8.2351    0.5207 C   0  0  0  0  0  0  0  0  0  0  0  0
    0.7601  -10.0350    2.1284 N   0  0  0  0  0  0  0  0  0  0  0  0
    0.2242  -10.8213    3.2457 C   0  0  0  0  0  0  0  0  0  0  0  0
    0.8710  -12.2180    3.1144 C   0  0  0  0  0  0  0  0  0  0  0  0
    2.1743  -11.8911    2.3492 C   0  0  0  0  0  0  0  0  0  0  0  0
    1.8555  -10.6127    1.6058 C   0  0  0  0  0  0  0  0  0  0  0  0
    2.4966  -10.1719    0.6754 O   0  0  0  0  0  0  0  0  0  0  0  0
    1.0556    1.8914   -0.0444 H   0  0  0  0  0  0  0  0  0  0  0  0
   -0.5106    1.8814   -0.8900 H   0  0  0  0  0  0  0  0  0  0  0  0
   -0.4597    1.8772    0.8892 H   0  0  0  0  0  0  0  0  0  0  0  0
    0.5850   -0.3713    0.8541 H   0  0  0  0  0  0  0  0  0  0  0  0
   -0.9812   -0.3814    0.0085 H   0  0  0  0  0  0  0  0  0  0  0  0
    1.9944   -1.3603   -3.5978 H   0  0  0  0  0  0  0  0  0  0  0  0
    2.9656   -2.7444   -5.3785 H   0  0  0  0  0  0  0  0  0  0  0  0
    2.8893   -5.1984   -5.2280 H   0  0  0  0  0  0  0  0  0  0  0  0
    1.8407   -6.2894   -3.2946 H   0  0  0  0  0  0  0  0  0  0  0  0
    0.9842   -6.9721   -1.8181 H   0  0  0  0  0  0  0  0  0  0  0  0
   -1.3515   -5.5514    0.3935 H   0  0  0  0  0  0  0  0  0  0  0  0
   -2.2474   -6.6335    2.4125 H   0  0  0  0  0  0  0  0  0  0  0  0
   -1.2605   -8.7339    3.2288 H   0  0  0  0  0  0  0  0  0  0  0  0
    1.5288   -8.6854   -0.0110 H   0  0  0  0  0  0  0  0  0  0  0  0
    0.5019  -10.3647    4.1957 H   0  0  0  0  0  0  0  0  0  0  0  0
   -0.8602  -10.8989    3.1664 H   0  0  0  0  0  0  0  0  0  0  0  0
    1.0900  -12.6402    4.0951 H   0  0  0  0  0  0  0  0  0  0  0  0
    0.2365  -12.8889    2.5353 H   0  0  0  0  0  0  0  0  0  0  0  0
    2.9976  -11.7362    3.0466 H   0  0  0  0  0  0  0  0  0  0  0  0
    2.4139  -12.6885    1.6457 H   0  0  0  0  0  0  0  0  0  0  0  0
  1  2  1  0  0  0  0
  1 28  1  0  0  0  0
  1 29  1  0  0  0  0
  1 30  1  0  0  0  0
  2  3  1  0  0  0  0
  2 31  1  0  0  0  0
  2 32  1  0  0  0  0
  3  4  2  0  0  0  0
  3  5  2  0  0  0  0
  3  6  1  0  0  0  0
  6  7  1  0  0  0  0
  7 12  2  0  0  0  0
  7  8  1  0  0  0  0
  8  9  2  0  0  0  0
  8 33  1  0  0  0  0
  9 10  1  0  0  0  0
  9 34  1  0  0  0  0
 10 11  2  0  0  0  0
 10 35  1  0  0  0  0
 11 12  1  0  0  0  0
 11 36  1  0  0  0  0
 12 13  1  0  0  0  0
 13 14  2  0  0  0  0
 13 15  1  0  0  0  0
 15 16  1  0  0  0  0
 15 37  1  0  0  0  0
 16 21  2  0  0  0  0
 16 17  1  0  0  0  0
 17 18  2  0  0  0  0
 17 38  1  0  0  0  0
 18 19  1  0  0  0  0
 18 39  1  0  0  0  0
 19 20  2  0  0  0  0
 19 40  1  0  0  0  0
 20 21  1  0  0  0  0
 20 22  1  0  0  0  0
 21 41  1  0  0  0  0
 22 26  1  0  0  0  0
 22 23  1  0  0  0  0
 23 24  1  0  0  0  0
 23 42  1  0  0  0  0
 23 43  1  0  0  0  0
 24 25  1  0  0  0  0
 24 44  1  0  0  0  0
 24 45  1  0  0  0  0
 25 26  1  0  0  0  0
 25 46  1  0  0  0  0
 25 47  1  0  0  0  0
 26 27  2  0  0  0  0
M  END
$$$$
ZINC13451479
 OpenBabel01252620473D

 47 48  0  0  0  0  0  0  0  0999 V2000
    6.8331    4.2956   -1.5962 C   0  0  0  0  0  0  0  0  0  0  0  0
    5.5112    3.7745   -1.4441 O   0  0  0  0  0  0  0  0  0  0  0  0
    4.8896    4.1193   -0.2045 C   0  0  0  0  0  0  0  0  0  0  0  0
    3.4865    3.5116   -0.1511 C   0  0  0  0  0  0  0  0  0  0  0  0
    3.5849    2.0861   -0.1410 O   0  0  0  0  0  0  0  0  0  0  0  0
    2.4211    1.3881   -0.0949 C   0  0  0  0  0  0  0  0  0  0  0  0
    1.2120    2.0642   -0.0612 C   0  0  0  0  0  0  0  0  0  0  0  0
    0.0212    1.3562   -0.0141 C   0  0  0  0  0  0  0  0  0  0  0  0
    0.0438   -0.0481   -0.0011 C   0  0  0  0  0  0  0  0  0  0  0  0
    1.2693   -0.7229   -0.0359 C   0  0  0  0  0  0  0  0  0  0  0  0
    2.4475   -0.0073   -0.0827 C   0  0  0  0  0  0  0  0  0  0  0  0
    3.6389   -0.6635   -0.1165 O   0  0  0  0  0  0  0  0  0  0  0  0
    3.5936   -2.0917   -0.1010 C   0  0  0  0  0  0  0  0  0  0  0  0
   -1.2158   -0.8066    0.0483 C   0  0  0  0  0  0  0  0  0  0  0  0
   -2.2799   -0.2222   -0.0119 O   0  0  0  0  0  0  0  0  0  0  0  0
   -1.1949    2.0356    0.0145 N   0  0  0  0  0  0  0  0  0  0  0  0
   -1.2989    3.2034    0.6793 C   0  0  0  0  0  0  0  0  0  0  0  0
   -0.3139    3.7042    1.1858 O   0  0  0  0  0  0  0  0  0  0  0  0
   -2.6106    3.8752    0.7923 C   0  0  0  0  0  0  0  0  0  0  0  0
   -3.7426    3.3057    0.2067 C   0  0  0  0  0  0  0  0  0  0  0  0
   -4.9648    3.9353    0.3205 C   0  0  0  0  0  0  0  0  0  0  0  0
   -5.0680    5.1343    1.0032 C   0  0  0  0  0  0  0  0  0  0  0  0
   -3.9489    5.7068    1.5814 C   0  0  0  0  0  0  0  0  0  0  0  0
   -2.7217    5.0849    1.4801 C   0  0  0  0  0  0  0  0  0  0  0  0
   -4.0688    6.9893    2.3107 N   0  0  0  0  0  4  0  0  0  0  0  0
   -3.0846    7.4942    2.8206 O   0  0  0  0  0  0  0  0  0  0  0  0
   -5.1516    7.5396    2.4010 O   0  5  0  0  0  0  0  0  0  0  0  0
   -6.1674    3.3299   -0.2945 N   0  0  0  0  0  4  0  0  0  0  0  0
   -7.2463    3.8872   -0.1993 O   0  0  0  0  0  0  0  0  0  0  0  0
   -6.0781    2.2744   -0.8958 O   0  5  0  0  0  0  0  0  0  0  0  0
    6.8030    5.3839   -1.5433 H   0  0  0  0  0  0  0  0  0  0  0  0
    7.4694    3.9106   -0.7993 H   0  0  0  0  0  0  0  0  0  0  0  0
    7.2353    3.9898   -2.5620 H   0  0  0  0  0  0  0  0  0  0  0  0
    4.8192    5.2040   -0.1227 H   0  0  0  0  0  0  0  0  0  0  0  0
    5.4855    3.7307    0.6213 H   0  0  0  0  0  0  0  0  0  0  0  0
    2.9190    3.8305   -1.0254 H   0  0  0  0  0  0  0  0  0  0  0  0
    2.9794    3.8473    0.7535 H   0  0  0  0  0  0  0  0  0  0  0  0
    1.1974    3.1440   -0.0712 H   0  0  0  0  0  0  0  0  0  0  0  0
    1.2926   -1.8026   -0.0258 H   0  0  0  0  0  0  0  0  0  0  0  0
    3.0988   -2.4297    0.8095 H   0  0  0  0  0  0  0  0  0  0  0  0
    3.0387   -2.4470   -0.9693 H   0  0  0  0  0  0  0  0  0  0  0  0
    4.6086   -2.4878   -0.1314 H   0  0  0  0  0  0  0  0  0  0  0  0
   -1.9667    1.6681   -0.4440 H   0  0  0  0  0  0  0  0  0  0  0  0
   -3.6626    2.3721   -0.3303 H   0  0  0  0  0  0  0  0  0  0  0  0
   -6.0264    5.6254    1.0855 H   0  0  0  0  0  0  0  0  0  0  0  0
   -1.8491    5.5326    1.9321 H   0  0  0  0  0  0  0  0  0  0  0  0
   -1.1899   -2.1496    0.1603 O   0  0  0  0  0  1  0  0  0  0  0  0
  1  2  1  0  0  0  0
  1 31  1  0  0  0  0
  1 32  1  0  0  0  0
  1 33  1  0  0  0  0
  2  3  1  0  0  0  0
  3  4  1  0  0  0  0
  3 34  1  0  0  0  0
  3 35  1  0  0  0  0
  4  5  1  0  0  0  0
  4 36  1  0  0  0  0
  4 37  1  0  0  0  0
  5  6  1  0  0  0  0
  6 11  2  0  0  0  0
  6  7  1  0  0  0  0
  7  8  2  0  0  0  0
  7 38  1  0  0  0  0
  8  9  1  0  0  0  0
  8 16  1  0  0  0  0
  9 10  2  0  0  0  0
  9 14  1  0  0  0  0
 10 11  1  0  0  0  0
 10 39  1  0  0  0  0
 11 12  1  0  0  0  0
 12 13  1  0  0  0  0
 13 40  1  0  0  0  0
 13 41  1  0  0  0  0
 13 42  1  0  0  0  0
 14 15  2  0  0  0  0
 14 47  1  0  0  0  0
 16 17  1  0  0  0  0
 16 43  1  0  0  0  0
 17 18  2  0  0  0  0
 17 19  1  0  0  0  0
 19 24  2  0  0  0  0
 19 20  1  0  0  0  0
 20 21  2  0  0  0  0
 20 44  1  0  0  0  0
 21 22  1  0  0  0  0
 21 28  1  0  0  0  0
 22 23  2  0  0  0  0
 22 45  1  0  0  0  0
 23 24  1  0  0  0  0
 23 25  1  0  0  0  0
 24 46  1  0  0  0  0
 25 26  2  0  0  0  0
 25 27  1  0  0  0  0
 28 29  2  0  0  0  0
 28 30  1  0  0  0  0
M  CHG  2  27  -1  30  -1
M  END
$$$$
ZINC35643817
 OpenBabel01252620473D

 34 36  0  0  0  0  0  0  0  0999 V2000
    0.4208    1.4692    1.4367 C   0  0  0  0  0  0  0  0  0  0  0  0
    1.3888    2.0988    0.6661 C   0  0  0  0  0  0  0  0  0  0  0  0
    2.3986    1.3451    0.0928 C   0  0  0  0  0  0  0  0  0  0  0  0
    2.4531    0.0419    0.2678 N   0  0  0  0  0  0  0  0  0  0  0  0
    1.5463   -0.6015    0.9985 C   0  0  0  0  0  0  0  0  0  0  0  0
    0.4995    0.0986    1.6065 C   0  0  0  0  0  0  0  0  0  0  0  0
    1.6452   -2.0591    1.1674 C   0  0  0  0  0  0  0  0  0  0  0  0
    2.6576   -2.7423    0.5798 C   0  0  0  0  0  0  0  0  0  0  0  0
    2.9561   -4.1928    0.6024 C   0  0  0  0  0  0  0  0  0  0  0  0
    2.2544   -4.9814    1.2071 O   0  0  0  0  0  0  0  0  0  0  0  0
    4.0252   -4.5857   -0.0696 N   0  0  0  0  0  0  0  0  0  0  0  0
    4.8000   -3.7080   -0.7383 C   0  0  0  0  0  0  0  0  0  0  0  0
    6.2102   -4.0211   -1.6572 S   0  0  0  0  0  0  0  0  0  0  0  0
    3.9957   -2.1417   -0.4422 S   0  0  0  0  0  0  0  0  0  0  0  0
    4.3610   -5.9467   -0.0866 C   0  0  0  0  0  0  0  0  0  0  0  0
    5.1987   -6.4644    0.8897 C   0  0  0  0  0  0  0  0  0  0  0  0
    5.5355   -7.8207    0.8766 C   0  0  0  0  0  0  0  0  0  0  0  0
    5.0281   -8.6535   -0.1200 C   0  0  0  0  0  0  0  0  0  0  0  0
    4.1861   -8.1289   -1.0998 C   0  0  0  0  0  0  0  0  0  0  0  0
    3.8500   -6.7726   -1.0764 C   0  0  0  0  0  0  0  0  0  0  0  0
    3.6466   -9.0057   -2.1571 C   0  0  0  0  0  0  0  0  0  0  0  0
    3.9379  -10.1933   -2.1744 O   0  0  0  0  0  0  0  0  0  0  0  0
    2.9083   -8.5447   -3.0160 O   0  0  0  0  0  1  0  0  0  0  0  0
    6.4275   -8.3705    1.9158 C   0  0  0  0  0  0  0  0  0  0  0  0
    6.8723   -7.6393    2.7891 O   0  0  0  0  0  0  0  0  0  0  0  0
    6.7217   -9.5574    1.9035 O   0  0  0  0  0  1  0  0  0  0  0  0
   -0.3737    2.0376    1.8971 H   0  0  0  0  0  0  0  0  0  0  0  0
    1.3541    3.1675    0.5148 H   0  0  0  0  0  0  0  0  0  0  0  0
    3.1523    1.8336   -0.5069 H   0  0  0  0  0  0  0  0  0  0  0  0
   -0.2366   -0.4232    2.2000 H   0  0  0  0  0  0  0  0  0  0  0  0
    0.9111   -2.5851    1.7597 H   0  0  0  0  0  0  0  0  0  0  0  0
    5.5916   -5.8186    1.6610 H   0  0  0  0  0  0  0  0  0  0  0  0
    5.2868   -9.7020   -0.1331 H   0  0  0  0  0  0  0  0  0  0  0  0
    3.1946   -6.3663   -1.8326 H   0  0  0  0  0  0  0  0  0  0  0  0
  1  6  2  0  0  0  0
  1  2  1  0  0  0  0
  1 27  1  0  0  0  0
  2  3  2  0  0  0  0
  2 28  1  0  0  0  0
  3  4  1  0  0  0  0
  3 29  1  0  0  0  0
  4  5  2  0  0  0  0
  5  6  1  0  0  0  0
  5  7  1  0  0  0  0
  6 30  1  0  0  0  0
  7  8  2  0  0  0  0
  7 31  1  0  0  0  0
  8 14  1  0  0  0  0
  8  9  1  0  0  0  0
  9 10  2  0  0  0  0
  9 11  1  0  0  0  0
 11 12  1  0  0  0  0
 11 15  1  0  0  0  0
 12 13  2  0  0  0  0
 12 14  1  0  0  0  0
 15 20  2  0  0  0  0
 15 16  1  0  0  0  0
 16 17  2  0  0  0  0
 16 32  1  0  0  0  0
 17 18  1  0  0  0  0
 17 24  1  0  0  0  0
 18 19  2  0  0  0  0
 18 33  1  0  0  0  0
 19 20  1  0  0  0  0
 19 21  1  0  0  0  0
 20 34  1  0  0  0  0
 21 22  2  0  0  0  0
 21 23  1  0  0  0  0
 24 25  2  0  0  0  0
 24 26  1  0  0  0  0
M  END
$$$$
ZINC41761038
 OpenBabel01252620473D

 41 42  0  0  1  0  0  0  0  0999 V2000
    0.1318    2.9979    1.8514 C   0  0  0  0  0  0  0  0  0  0  0  0
   -0.4937    2.8091    3.2094 C   0  0  0  0  0  0  0  0  0  0  0  0
   -0.5030    3.8502    4.1169 C   0  0  0  0  0  0  0  0  0  0  0  0
   -1.0767    3.6775    5.3640 C   0  0  0  0  0  0  0  0  0  0  0  0
   -1.6429    2.4622    5.7058 C   0  0  0  0  0  0  0  0  0  0  0  0
   -1.6366    1.4175    4.8025 C   0  0  0  0  0  0  0  0  0  0  0  0
   -1.0665    1.5897    3.5476 C   0  0  0  0  0  0  0  0  0  0  0  0
   -1.0641    0.5367    2.6293 N   0  0  0  0  0  0  0  0  0  0  0  0
   -1.0043   -0.8483    3.1032 C   0  0  1  0  0  0  0  0  0  0  0  0
   -0.4791   -1.7484    1.9830 C   0  0  0  0  0  0  0  0  0  0  0  0
    0.9216   -1.2885    1.5736 C   0  0  0  0  0  0  0  0  0  0  0  0
    1.8595   -1.3749    2.7793 C   0  0  0  0  0  0  0  0  0  0  0  0
    1.3342   -0.4748    3.8995 C   0  0  2  0  0  0  0  0  0  0  0  0
    2.0024   -0.5363    4.7585 H   0  0  0  0  0  0  0  0  0  0  0  0
   -0.0664   -0.9347    4.3089 C   0  0  0  0  0  0  0  0  0  0  0  0
    1.2717    0.9716    3.4046 C   0  0  0  0  0  0  0  0  0  0  0  0
   -2.3839   -1.3013    3.5064 C   0  0  0  0  0  0  0  0  0  0  0  0
   -3.3634   -0.8577    2.9318 O   0  0  0  0  0  0  0  0  0  0  0  0
   -2.5204   -2.1114    4.4073 O   0  0  0  0  0  1  0  0  0  0  0  0
   -2.2527    0.0938    5.1758 C   0  0  0  0  0  0  0  0  0  0  0  0
   -1.0862    5.1050    6.6042 Br  0  0  0  0  0  0  0  0  0  0  0  0
   -0.6202    3.3646    1.1528 H   0  0  0  0  0  0  0  0  0  0  0  0
    0.9444    3.7209    1.9230 H   0  0  0  0  0  0  0  0  0  0  0  0
    0.5237    2.0448    1.4962 H   0  0  0  0  0  0  0  0  0  0  0  0
   -0.0617    4.7999    3.8529 H   0  0  0  0  0  0  0  0  0  0  0  0
   -2.0900    2.3302    6.6800 H   0  0  0  0  0  0  0  0  0  0  0  0
   -1.1021    0.7226    1.6780 H   0  0  0  0  0  0  0  0  0  0  0  0
   -0.4345   -2.7788    2.3355 H   0  0  0  0  0  0  0  0  0  0  0  0
   -1.1473   -1.6868    1.1240 H   0  0  0  0  0  0  0  0  0  0  0  0
    1.2957   -1.9297    0.7755 H   0  0  0  0  0  0  0  0  0  0  0  0
    0.8770   -0.2580    1.2210 H   0  0  0  0  0  0  0  0  0  0  0  0
    1.9040   -2.4053    3.1319 H   0  0  0  0  0  0  0  0  0  0  0  0
    2.8573   -1.0472    2.4876 H   0  0  0  0  0  0  0  0  0  0  0  0
   -0.4406   -0.2934    5.1070 H   0  0  0  0  0  0  0  0  0  0  0  0
   -0.0219   -1.9651    4.6615 H   0  0  0  0  0  0  0  0  0  0  0  0
    0.6914    1.0155    2.4830 H   0  0  0  0  0  0  0  0  0  0  0  0
    0.7974    1.5949    4.1627 H   0  0  0  0  0  0  0  0  0  0  0  0
    2.2819    1.3349    3.2155 H   0  0  0  0  0  0  0  0  0  0  0  0
   -3.2128   -0.0152    4.6715 H   0  0  0  0  0  0  0  0  0  0  0  0
   -1.5884   -0.7149    4.8712 H   0  0  0  0  0  0  0  0  0  0  0  0
   -2.4024    0.0542    6.2547 H   0  0  0  0  0  0  0  0  0  0  0  0
  1  2  1  0  0  0  0
  1 22  1  0  0  0  0
  1 23  1  0  0  0  0
  1 24  1  0  0  0  0
  2  7  2  0  0  0  0
  2  3  1  0  0  0  0
  3  4  2  0  0  0  0
  3 25  1  0  0  0  0
  4  5  1  0  0  0  0
  4 21  1  0  0  0  0
  5  6  2  0  0  0  0
  5 26  1  0  0  0  0
  6  7  1  0  0  0  0
  6 20  1  0  0  0  0
  7  8  1  0  0  0  0
  8  9  1  0  0  0  0
  8 27  1  0  0  0  0
  9 15  1  0  0  0  0
  9 10  1  0  0  0  0
  9 17  1  1  0  0  0
 10 11  1  0  0  0  0
 10 28  1  0  0  0  0
 10 29  1  0  0  0  0
 11 12  1  0  0  0  0
 11 30  1  0  0  0  0
 11 31  1  0  0  0  0
 12 13  1  0  0  0  0
 12 32  1  0  0  0  0
 12 33  1  0  0  0  0
 13 14  1  1  0  0  0
 13 15  1  0  0  0  0
 13 16  1  0  0  0  0
 15 34  1  0  0  0  0
 15 35  1  0  0  0  0
 16 36  1  0  0  0  0
 16 37  1  0  0  0  0
 16 38  1  0  0  0  0
 17 18  2  0  0  0  0
 17 19  1  0  0  0  0
 20 39  1  0  0  0  0
 20 40  1  0  0  0  0
 20 41  1  0  0  0  0
M  END
$$$$
ZINC08856495
 OpenBabel01252620473D

 33 35  0  0  1  0  0  0  0  0999 V2000
    6.8604    0.9434    5.4421 C   0  0  0  0  0  0  0  0  0  0  0  0
    7.2074    0.7106    4.0755 O   0  0  0  0  0  0  0  0  0  0  0  0
    6.2977    1.0828    3.1355 C   0  0  0  0  0  0  0  0  0  0  0  0
    5.0997    1.6586    3.5235 C   0  0  0  0  0  0  0  0  0  0  0  0
    4.1674    2.0411    2.5712 C   0  0  0  0  0  0  0  0  0  0  0  0
    4.4265    1.8501    1.2358 C   0  0  0  0  0  0  0  0  0  0  0  0
    5.6315    1.2693    0.8237 C   0  0  0  0  0  0  0  0  0  0  0  0
    6.5731    0.8840    1.7860 C   0  0  0  0  0  0  0  0  0  0  0  0
    7.7468    0.3188    1.4047 O   0  0  0  0  0  0  0  0  0  0  0  0
    8.8431    1.2023    1.1606 C   0  0  0  0  0  0  0  0  0  0  0  0
    5.6233    1.1948   -0.6453 C   0  0  0  0  0  0  0  0  0  0  0  0
    6.5242    0.7412   -1.3228 O   0  0  0  0  0  0  0  0  0  0  0  0
    4.4768    1.7006   -1.1307 O   0  0  0  0  0  0  0  0  0  0  0  0
    3.6476    2.1443   -0.0218 C   0  0  1  0  0  0  0  0  0  0  0  0
    3.4283    3.2163   -0.1343 H   0  0  0  0  0  0  0  0  0  0  0  0
    2.3457    1.3853   -0.0134 C   0  0  0  0  0  0  0  0  0  0  0  0
    1.1566    2.0524    0.0020 C   0  0  0  0  0  0  0  0  0  0  0  0
   -0.0162    1.3414    0.0094 N   0  0  0  0  0  0  0  0  0  0  0  0
    0.0021   -0.0041    0.0020 C   0  0  0  0  0  0  0  0  0  0  0  0
   -1.4762   -0.8675    0.0110 S   0  0  0  0  0  0  0  0  0  0  0  0
    1.1649   -0.6809   -0.0128 N   0  0  0  0  0  0  0  0  0  0  0  0
    1.1610   -1.7809   -0.0184 H   0  0  0  0  0  0  0  0  0  0  0  0
    2.3401   -0.0211   -0.0209 C   0  0  0  0  0  0  0  0  0  0  0  0
    3.3907   -0.6389   -0.0343 O   0  5  0  0  0  0  0  0  0  0  0  0
    1.1339    3.4021    0.0100 O   0  5  0  0  0  0  0  0  0  0  0  0
    7.6782    0.5985    6.0919 H   0  0  0  0  0  0  0  0  0  0  0  0
    5.9407    0.3915    5.6860 H   0  0  0  0  0  0  0  0  0  0  0  0
    6.6953    2.0194    5.6003 H   0  0  0  0  0  0  0  0  0  0  0  0
    4.8908    1.8107    4.5721 H   0  0  0  0  0  0  0  0  0  0  0  0
    3.2349    2.4900    2.8802 H   0  0  0  0  0  0  0  0  0  0  0  0
    9.7255    0.6177    0.8613 H   0  0  0  0  0  0  0  0  0  0  0  0
    9.0706    1.7663    2.0772 H   0  0  0  0  0  0  0  0  0  0  0  0
    8.5771    1.9030    0.3554 H   0  0  0  0  0  0  0  0  0  0  0  0
  1  2  1  0  0  0  0
  1 26  1  0  0  0  0
  1 27  1  0  0  0  0
  1 28  1  0  0  0  0
  2  3  1  0  0  0  0
  3  8  2  0  0  0  0
  3  4  1  0  0  0  0
  4  5  2  0  0  0  0
  4 29  1  0  0  0  0
  5  6  1  0  0  0  0
  5 30  1  0  0  0  0
  6 14  1  0  0  0  0
  6  7  2  0  0  0  0
  7  8  1  0  0  0  0
  7 11  1  0  0  0  0
  8  9  1  0  0  0  0
  9 10  1  0  0  0  0
 10 31  1  0  0  0  0
 10 32  1  0  0  0  0
 10 33  1  0  0  0  0
 11 12  2  0  0  0  0
 11 13  1  0  0  0  0
 13 14  1  0  0  0  0
 14 15  1  6  0  0  0
 14 16  1  0  0  0  0
 16 23  2  0  0  0  0
 16 17  1  0  0  0  0
 17 25  1  0  0  0  0
 17 18  2  0  0  0  0
 18 19  1  0  0  0  0
 19 20  2  0  0  0  0
 19 21  1  0  0  0  0
 21 23  1  0  0  0  0
 21 22  1  0  0  0  0
 23 24  1  0  0  0  0
M  CHG  2  24  -1  25  -1
M  END
$$$$
ZINC40117798
 OpenBabel01252620473D

 45 47  0  0  1  0  0  0  0  0999 V2000
   -2.3590    1.5625   -5.1005 C   0  0  0  0  0  0  0  0  0  0  0  0
   -2.3764    0.1345   -5.1490 O   0  0  0  0  0  0  0  0  0  0  0  0
   -1.1936   -0.5029   -4.9593 C   0  0  0  0  0  0  0  0  0  0  0  0
   -0.0384    0.2348   -4.7249 C   0  0  0  0  0  0  0  0  0  0  0  0
    1.1636   -0.4078   -4.5319 C   0  0  0  0  0  0  0  0  0  0  0  0
    1.2218   -1.8043   -4.5715 C   0  0  0  0  0  0  0  0  0  0  0  0
    0.0577   -2.5423   -4.8071 C   0  0  0  0  0  0  0  0  0  0  0  0
   -1.1411   -1.8919   -4.9942 C   0  0  0  0  0  0  0  0  0  0  0  0
    2.5086   -2.4976   -4.3656 C   0  0  0  0  0  0  0  0  0  0  0  0
    3.5316   -1.8531   -4.2269 O   0  0  0  0  0  0  0  0  0  0  0  0
    2.5543   -3.9628   -4.3282 C   0  0  0  0  0  0  0  0  0  0  0  0
    3.1633   -4.7743   -5.2236 C   0  0  0  0  0  0  0  0  0  0  0  0
    2.9692   -6.1812   -4.8144 C   0  0  0  0  0  0  0  0  0  0  0  0
    3.3972   -7.1472   -5.4142 O   0  0  0  0  0  0  0  0  0  0  0  0
    2.2487   -6.2340   -3.6794 N   0  0  0  0  0  0  0  0  0  0  0  0
    1.9361   -4.8571   -3.2790 C   0  0  1  0  0  0  0  0  0  0  0  0
    0.8560   -4.7129   -3.2528 H   0  0  0  0  0  0  0  0  0  0  0  0
    2.5324   -4.5590   -1.9275 C   0  0  0  0  0  0  0  0  0  0  0  0
    3.8144   -4.9830   -1.6300 C   0  0  0  0  0  0  0  0  0  0  0  0
    4.3631   -4.7114   -0.3917 C   0  0  0  0  0  0  0  0  0  0  0  0
    3.6268   -4.0122    0.5537 C   0  0  0  0  0  0  0  0  0  0  0  0
    2.3409   -3.5875    0.2526 C   0  0  0  0  0  0  0  0  0  0  0  0
    1.7986   -3.8571   -0.9890 C   0  0  0  0  0  0  0  0  0  0  0  0
    4.1642   -3.7442    1.7728 O   0  0  0  0  0  0  0  0  0  0  0  0
    3.3487   -3.0202    2.6963 C   0  0  0  0  0  0  0  0  0  0  0  0
    4.1057   -2.8179    3.9836 C   0  0  0  0  0  0  0  0  0  0  0  0
    5.2326   -3.2512    4.0989 O   0  0  0  0  0  0  0  0  0  0  0  0
    3.5304   -2.1556    5.0068 N   0  0  0  0  0  0  0  0  0  0  0  0
    3.8419   -4.3632   -6.3195 O   0  5  0  0  0  0  0  0  0  0  0  0
   -2.0042    1.8885   -4.1228 H   0  0  0  0  0  0  0  0  0  0  0  0
   -1.6932    1.9443   -5.8745 H   0  0  0  0  0  0  0  0  0  0  0  0
   -3.3664    1.9440   -5.2672 H   0  0  0  0  0  0  0  0  0  0  0  0
   -0.0842    1.3134   -4.6945 H   0  0  0  0  0  0  0  0  0  0  0  0
    2.0605    0.1658   -4.3506 H   0  0  0  0  0  0  0  0  0  0  0  0
    0.0984   -3.6210   -4.8384 H   0  0  0  0  0  0  0  0  0  0  0  0
   -2.0414   -2.4613   -5.1722 H   0  0  0  0  0  0  0  0  0  0  0  0
    1.9859   -7.0395   -3.2070 H   0  0  0  0  0  0  0  0  0  0  0  0
    4.3871   -5.5272   -2.3663 H   0  0  0  0  0  0  0  0  0  0  0  0
    5.3642   -5.0434   -0.1595 H   0  0  0  0  0  0  0  0  0  0  0  0
    1.7657   -3.0431    0.9869 H   0  0  0  0  0  0  0  0  0  0  0  0
    0.7993   -3.5228   -1.2255 H   0  0  0  0  0  0  0  0  0  0  0  0
    3.0906   -2.0506    2.2704 H   0  0  0  0  0  0  0  0  0  0  0  0
    2.4372   -3.5837    2.8955 H   0  0  0  0  0  0  0  0  0  0  0  0
    2.6291   -1.8091    4.9146 H   0  0  0  0  0  0  0  0  0  0  0  0
    4.0177   -2.0255    5.8353 H   0  0  0  0  0  0  0  0  0  0  0  0
  1  2  1  0  0  0  0
  1 30  1  0  0  0  0
  1 31  1  0  0  0  0
  1 32  1  0  0  0  0
  2  3  1  0  0  0  0
  3  8  2  0  0  0  0
  3  4  1  0  0  0  0
  4  5  2  0  0  0  0
  4 33  1  0  0  0  0
  5  6  1  0  0  0  0
  5 34  1  0  0  0  0
  6  7  2  0  0  0  0
  6  9  1  0  0  0  0
  7  8  1  0  0  0  0
  7 35  1  0  0  0  0
  8 36  1  0  0  0  0
  9 10  2  0  0  0  0
  9 11  1  0  0  0  0
 11 16  1  0  0  0  0
 11 12  2  0  0  0  0
 12 13  1  0  0  0  0
 12 29  1  0  0  0  0
 13 14  2  0  0  0  0
 13 15  1  0  0  0  0
 15 16  1  0  0  0  0
 15 37  1  0  0  0  0
 16 17  1  1  0  0  0
 16 18  1  0  0  0  0
 18 23  2  0  0  0  0
 18 19  1  0  0  0  0
 19 20  2  0  0  0  0
 19 38  1  0  0  0  0
 20 21  1  0  0  0  0
 20 39  1  0  0  0  0
 21 22  2  0  0  0  0
 21 24  1  0  0  0  0
 22 23  1  0  0  0  0
 22 40  1  0  0  0  0
 23 41  1  0  0  0  0
 24 25  1  0  0  0  0
 25 26  1  0  0  0  0
 25 42  1  0  0  0  0
 25 43  1  0  0  0  0
 26 27  2  0  0  0  0
 26 28  1  0  0  0  0
 28 44  1  0  0  0  0
 28 45  1  0  0  0  0
M  CHG  1  29  -1
M  END
$$$$
ZINC13252052
 OpenBabel01252620473D

 48 50  0  0  0  0  0  0  0  0999 V2000
   -0.0392    1.4268   -0.0306 C   0  0  0  0  0  0  0  0  0  0  0  0
    1.1446    2.1381   -0.0443 C   0  0  0  0  0  0  0  0  0  0  0  0
    2.3555    1.4685   -0.0575 C   0  0  0  0  0  0  0  0  0  0  0  0
    2.3842    0.0850   -0.0570 C   0  0  0  0  0  0  0  0  0  0  0  0
    1.2035   -0.6314   -0.0429 C   0  0  0  0  0  0  0  0  0  0  0  0
   -0.0134    0.0380   -0.0296 C   0  0  0  0  0  0  0  0  0  0  0  0
   -1.2096   -0.6843   -0.0153 N   0  0  0  0  0  2  0  0  0  0  0  0
   -1.1771   -2.3399   -0.0142 S   0  0  0  0  0  0  0  0  0  0  0  0
   -0.6327   -2.7363   -1.2655 O   0  0  0  0  0  0  0  0  0  0  0  0
   -0.6043   -2.7341    1.2251 O   0  0  0  0  0  0  0  0  0  0  0  0
   -2.8497   -2.8938    0.0054 C   0  0  0  0  0  0  0  0  0  0  0  0
   -3.4933   -3.1043    1.2112 C   0  0  0  0  0  0  0  0  0  0  0  0
   -4.8057   -3.5388    1.2313 C   0  0  0  0  0  0  0  0  0  0  0  0
   -5.4786   -3.7643    0.0451 C   0  0  0  0  0  0  0  0  0  0  0  0
   -4.8344   -3.5532   -1.1678 C   0  0  0  0  0  0  0  0  0  0  0  0
   -3.5180   -3.1117   -1.1836 C   0  0  0  0  0  0  0  0  0  0  0  0
   -5.5123   -3.7808   -2.3712 N   0  0  0  0  0  0  0  0  0  0  0  0
   -4.8194   -4.0655   -3.4916 C   0  0  0  0  0  0  0  0  0  0  0  0
   -3.6180   -4.2235   -3.4380 O   0  0  0  0  0  0  0  0  0  0  0  0
   -5.5373   -4.1876   -4.8109 C   0  0  0  0  0  0  0  0  0  0  0  0
   -4.5272   -4.5133   -5.9130 C   0  0  0  0  0  0  0  0  0  0  0  0
   -3.5144   -3.3590   -6.0595 C   0  0  0  0  0  0  0  0  0  0  0  0
   -3.2494   -3.2773   -7.5834 C   0  0  0  0  0  0  0  0  0  0  0  0
   -4.6467   -3.5597   -8.1889 C   0  0  0  0  0  0  0  0  0  0  0  0
   -5.2471   -4.6410   -7.2669 C   0  0  0  0  0  0  0  0  0  0  0  0
   -3.8059   -5.7962   -5.5889 C   0  0  0  0  0  0  0  0  0  0  0  0
   -4.0810   -6.4101   -4.5720 O   0  0  0  0  0  0  0  0  0  0  0  0
   -2.9473   -6.2202   -6.3435 O   0  0  0  0  0  1  0  0  0  0  0  0
   -7.1261   -4.3111    0.0707 Cl  0  0  0  0  0  0  0  0  0  0  0  0
    3.8415    2.3658   -0.0752 Cl  0  0  0  0  0  0  0  0  0  0  0  0
   -0.9839    1.9499   -0.0162 H   0  0  0  0  0  0  0  0  0  0  0  0
    1.1251    3.2179   -0.0450 H   0  0  0  0  0  0  0  0  0  0  0  0
    3.3306   -0.4351   -0.0680 H   0  0  0  0  0  0  0  0  0  0  0  0
    1.2264   -1.7112   -0.0429 H   0  0  0  0  0  0  0  0  0  0  0  0
   -2.9695   -2.9291    2.1393 H   0  0  0  0  0  0  0  0  0  0  0  0
   -5.3054   -3.7026    2.1746 H   0  0  0  0  0  0  0  0  0  0  0  0
   -3.0158   -2.9427   -2.1246 H   0  0  0  0  0  0  0  0  0  0  0  0
   -6.4807   -3.7337   -2.3986 H   0  0  0  0  0  0  0  0  0  0  0  0
   -6.2776   -4.9853   -4.7493 H   0  0  0  0  0  0  0  0  0  0  0  0
   -6.0359   -3.2463   -5.0417 H   0  0  0  0  0  0  0  0  0  0  0  0
   -3.9448   -2.4256   -5.6966 H   0  0  0  0  0  0  0  0  0  0  0  0
   -2.5934   -3.5892   -5.5239 H   0  0  0  0  0  0  0  0  0  0  0  0
   -2.9014   -2.2827   -7.8622 H   0  0  0  0  0  0  0  0  0  0  0  0
   -2.5334   -4.0389   -7.8923 H   0  0  0  0  0  0  0  0  0  0  0  0
   -5.2599   -2.6588   -8.1699 H   0  0  0  0  0  0  0  0  0  0  0  0
   -4.5521   -3.9365   -9.2074 H   0  0  0  0  0  0  0  0  0  0  0  0
   -5.0741   -5.6305   -7.6900 H   0  0  0  0  0  0  0  0  0  0  0  0
   -6.3162   -4.4709   -7.1389 H   0  0  0  0  0  0  0  0  0  0  0  0
  1  6  2  0  0  0  0
  1  2  1  0  0  0  0
  1 31  1  0  0  0  0
  2  3  2  0  0  0  0
  2 32  1  0  0  0  0
  3  4  1  0  0  0  0
  3 30  1  0  0  0  0
  4  5  2  0  0  0  0
  4 33  1  0  0  0  0
  5  6  1  0  0  0  0
  5 34  1  0  0  0  0
  6  7  1  0  0  0  0
  7  8  1  0  0  0  0
  8  9  2  0  0  0  0
  8 10  2  0  0  0  0
  8 11  1  0  0  0  0
 11 16  2  0  0  0  0
 11 12  1  0  0  0  0
 12 13  2  0  0  0  0
 12 35  1  0  0  0  0
 13 14  1  0  0  0  0
 13 36  1  0  0  0  0
 14 15  2  0  0  0  0
 14 29  1  0  0  0  0
 15 16  1  0  0  0  0
 15 17  1  0  0  0  0
 16 37  1  0  0  0  0
 17 18  1  0  0  0  0
 17 38  1  0  0  0  0
 18 19  2  0  0  0  0
 18 20  1  0  0  0  0
 20 21  1  0  0  0  0
 20 39  1  0  0  0  0
 20 40  1  0  0  0  0
 21 25  1  0  0  0  0
 21 22  1  0  0  0  0
 21 26  1  0  0  0  0
 22 23  1  0  0  0  0
 22 41  1  0  0  0  0
 22 42  1  0  0  0  0
 23 24  1  0  0  0  0
 23 43  1  0  0  0  0
 23 44  1  0  0  0  0
 24 25  1  0  0  0  0
 24 45  1  0  0  0  0
 24 46  1  0  0  0  0
 25 47  1  0  0  0  0
 25 48  1  0  0  0  0
 26 27  2  0  0  0  0
 26 28  1  0  0  0  0
M  END
$$$$
ZINC00795302
 OpenBabel01252620473D

 48 50  0  0  0  0  0  0  0  0999 V2000
    0.4184    1.3022    0.2193 C   0  0  0  0  0  0  0  0  0  0  0  0
    0.1598   -0.1775   -0.0712 C   0  0  0  0  0  0  0  0  0  0  0  0
    0.6984   -1.0256    1.0827 C   0  0  0  0  0  0  0  0  0  0  0  0
   -1.3222   -0.4094   -0.2160 C   0  0  0  0  0  0  0  0  0  0  0  0
   -1.7687   -0.8484   -1.2548 O   0  0  0  0  0  0  0  0  0  0  0  0
   -2.1515   -0.1291    0.8088 N   0  0  0  0  0  0  0  0  0  0  0  0
   -3.5345   -0.2678    0.6478 C   0  0  0  0  0  0  0  0  0  0  0  0
   -4.4003    0.6205    1.2722 C   0  0  0  0  0  0  0  0  0  0  0  0
   -5.7649    0.4808    1.1113 C   0  0  0  0  0  0  0  0  0  0  0  0
   -6.2693   -0.5423    0.3295 C   0  0  0  0  0  0  0  0  0  0  0  0
   -5.4098   -1.4287   -0.2932 C   0  0  0  0  0  0  0  0  0  0  0  0
   -4.0440   -1.2907   -0.1413 C   0  0  0  0  0  0  0  0  0  0  0  0
   -8.0108   -0.7170    0.1268 S   0  0  0  0  0  0  0  0  0  0  0  0
   -8.2462   -2.0778   -0.2081 O   0  0  0  0  0  0  0  0  0  0  0  0
   -8.6152   -0.0938    1.2518 O   0  0  0  0  0  0  0  0  0  0  0  0
   -8.4418    0.1778   -1.1983 N   0  0  0  0  0  2  0  0  0  0  0  0
   -9.7655    0.2269   -1.5995 C   0  0  0  0  0  0  0  0  0  0  0  0
  -10.6759   -0.4437   -0.9089 N   0  0  0  0  0  0  0  0  0  0  0  0
  -11.9494   -0.4176   -1.2653 C   0  0  0  0  0  0  0  0  0  0  0  0
  -12.3260    0.3224   -2.3751 C   0  0  0  0  0  0  0  0  0  0  0  0
  -11.3481    1.0119   -3.0746 C   0  0  0  0  0  0  0  0  0  0  0  0
  -10.0930    0.9477   -2.6619 N   0  0  0  0  0  0  0  0  0  0  0  0
    0.8204   -0.5475   -1.2831 O   0  0  0  0  0  0  0  0  0  0  0  0
    0.7126   -1.8450   -1.6734 C   0  0  0  0  0  0  0  0  0  0  0  0
   -0.1190   -2.7121   -0.9797 C   0  0  0  0  0  0  0  0  0  0  0  0
   -0.2272   -4.0304   -1.3779 C   0  0  0  0  0  0  0  0  0  0  0  0
    0.4935   -4.4864   -2.4674 C   0  0  0  0  0  0  0  0  0  0  0  0
    1.3238   -3.6233   -3.1603 C   0  0  0  0  0  0  0  0  0  0  0  0
    1.4296   -2.3026   -2.7692 C   0  0  0  0  0  0  0  0  0  0  0  0
    0.3562   -6.1438   -2.9655 Cl  0  0  0  0  0  0  0  0  0  0  0  0
    1.4809    1.4549    0.4091 H   0  0  0  0  0  0  0  0  0  0  0  0
    0.1132    1.8999   -0.6395 H   0  0  0  0  0  0  0  0  0  0  0  0
   -0.1545    1.6060    1.0955 H   0  0  0  0  0  0  0  0  0  0  0  0
    0.1082   -0.8360    1.9793 H   0  0  0  0  0  0  0  0  0  0  0  0
    0.6311   -2.0813    0.8199 H   0  0  0  0  0  0  0  0  0  0  0  0
    1.7395   -0.7636    1.2710 H   0  0  0  0  0  0  0  0  0  0  0  0
   -1.7895    0.1689    1.6580 H   0  0  0  0  0  0  0  0  0  0  0  0
   -4.0070    1.4195    1.8832 H   0  0  0  0  0  0  0  0  0  0  0  0
   -6.4388    1.1710    1.5969 H   0  0  0  0  0  0  0  0  0  0  0  0
   -5.8068   -2.2269   -0.9028 H   0  0  0  0  0  0  0  0  0  0  0  0
   -3.3731   -1.9802   -0.6320 H   0  0  0  0  0  0  0  0  0  0  0  0
  -12.6869   -0.9666   -0.6986 H   0  0  0  0  0  0  0  0  0  0  0  0
  -13.3589    0.3607   -2.6881 H   0  0  0  0  0  0  0  0  0  0  0  0
  -11.6082    1.5976   -3.9439 H   0  0  0  0  0  0  0  0  0  0  0  0
   -0.6812   -2.3567   -0.1288 H   0  0  0  0  0  0  0  0  0  0  0  0
   -0.8746   -4.7058   -0.8381 H   0  0  0  0  0  0  0  0  0  0  0  0
    1.8858   -3.9811   -4.0102 H   0  0  0  0  0  0  0  0  0  0  0  0
    2.0741   -1.6279   -3.3132 H   0  0  0  0  0  0  0  0  0  0  0  0
  1  2  1  0  0  0  0
  1 31  1  0  0  0  0
  1 32  1  0  0  0  0
  1 33  1  0  0  0  0
  2  3  1  0  0  0  0
  2  4  1  0  0  0  0
  2 23  1  0  0  0  0
  3 34  1  0  0  0  0
  3 35  1  0  0  0  0
  3 36  1  0  0  0  0
  4  5  2  0  0  0  0
  4  6  1  0  0  0  0
  6  7  1  0  0  0  0
  6 37  1  0  0  0  0
  7 12  2  0  0  0  0
  7  8  1  0  0  0  0
  8  9  2  0  0  0  0
  8 38  1  0  0  0  0
  9 10  1  0  0  0  0
  9 39  1  0  0  0  0
 10 11  2  0  0  0  0
 10 13  1  0  0  0  0
 11 12  1  0  0  0  0
 11 40  1  0  0  0  0
 12 41  1  0  0  0  0
 13 14  2  0  0  0  0
 13 15  2  0  0  0  0
 13 16  1  0  0  0  0
 16 17  1  0  0  0  0
 17 22  2  0  0  0  0
 17 18  1  0  0  0  0
 18 19  2  0  0  0  0
 19 20  1  0  0  0  0
 19 42  1  0  0  0  0
 20 21  2  0  0  0  0
 20 43  1  0  0  0  0
 21 22  1  0  0  0  0
 21 44  1  0  0  0  0
 23 24  1  0  0  0  0
 24 29  2  0  0  0  0
 24 25  1  0  0  0  0
 25 26  2  0  0  0  0
 25 45  1  0  0  0  0
 26 27  1  0  0  0  0
 26 46  1  0  0  0  0
 27 28  2  0  0  0  0
 27 30  1  0  0  0  0
 28 29  1  0  0  0  0
 28 47  1  0  0  0  0
 29 48  1  0  0  0  0
M  END
$$$$
ZINC61177615
 OpenBabel01252620473D

 37 38  0  0  0  0  0  0  0  0999 V2000
   -1.4903   -0.4248    0.0250 C   0  0  0  0  0  0  0  0  0  0  0  0
   -0.0273    0.0226    0.0042 C   0  0  0  0  0  0  0  0  0  0  0  0
    0.0456    1.5377    0.2044 C   0  0  0  0  0  0  0  0  0  0  0  0
    0.7248   -0.6674    1.1130 C   0  0  0  0  0  0  0  0  0  0  0  0
    1.5880   -1.4861    0.8465 O   0  0  0  0  0  0  0  0  0  0  0  0
    0.4700   -0.4069    2.2765 O   0  0  0  0  0  1  0  0  0  0  0  0
    0.5726   -0.3290   -1.2852 N   0  0  0  0  0  0  0  0  0  0  0  0
   -0.2316   -1.0023   -2.3080 C   0  0  0  0  0  0  0  0  0  0  0  0
    1.8644   -0.0331   -1.5305 C   0  0  0  0  0  0  0  0  0  0  0  0
    2.5319    0.5257   -0.6816 O   0  0  0  0  0  0  0  0  0  0  0  0
    2.4164   -0.3565   -2.7168 N   0  0  0  0  0  0  0  0  0  0  0  0
    3.7269    0.0368   -3.0091 C   0  0  0  0  0  0  0  0  0  0  0  0
    4.6891    0.0546   -1.9925 C   0  0  0  0  0  0  0  0  0  0  0  0
    5.9695    0.4321   -2.2471 C   0  0  0  0  0  0  0  0  0  0  0  0
    6.3447    0.8127   -3.5482 C   0  0  0  0  0  0  0  0  0  0  0  0
    5.3751    0.7968   -4.5820 C   0  0  0  0  0  0  0  0  0  0  0  0
    4.0603    0.3977   -4.2957 C   0  0  0  0  0  0  0  0  0  0  0  0
    5.7568    1.1786   -5.8820 C   0  0  0  0  0  0  0  0  0  0  0  0
    7.0548    1.5502   -6.0898 C   0  0  0  0  0  0  0  0  0  0  0  0
    7.9577    1.5435   -5.0292 C   0  0  0  0  0  0  0  0  0  0  0  0
    7.5989    1.1868   -3.8198 N   0  0  0  0  0  0  0  0  0  0  0  0
   -2.0342    0.0742   -0.7770 H   0  0  0  0  0  0  0  0  0  0  0  0
   -1.5422   -1.5042   -0.1177 H   0  0  0  0  0  0  0  0  0  0  0  0
   -1.9367   -0.1632    0.9844 H   0  0  0  0  0  0  0  0  0  0  0  0
   -0.4008    1.7993    1.1638 H   0  0  0  0  0  0  0  0  0  0  0  0
    1.0878    1.8564    0.1897 H   0  0  0  0  0  0  0  0  0  0  0  0
   -0.4984    2.0367   -0.5975 H   0  0  0  0  0  0  0  0  0  0  0  0
   -0.6458   -0.2606   -2.9910 H   0  0  0  0  0  0  0  0  0  0  0  0
    0.3966   -1.6978   -2.8646 H   0  0  0  0  0  0  0  0  0  0  0  0
   -1.0439   -1.5494   -1.8296 H   0  0  0  0  0  0  0  0  0  0  0  0
    1.9050   -0.8620   -3.3679 H   0  0  0  0  0  0  0  0  0  0  0  0
    4.4095   -0.2357   -0.9905 H   0  0  0  0  0  0  0  0  0  0  0  0
    6.6987    0.4403   -1.4506 H   0  0  0  0  0  0  0  0  0  0  0  0
    3.3152    0.3776   -5.0772 H   0  0  0  0  0  0  0  0  0  0  0  0
    5.0432    1.1776   -6.6927 H   0  0  0  0  0  0  0  0  0  0  0  0
    7.3806    1.8485   -7.0754 H   0  0  0  0  0  0  0  0  0  0  0  0
    8.9808    1.8396   -5.2081 H   0  0  0  0  0  0  0  0  0  0  0  0
  1  2  1  0  0  0  0
  1 22  1  0  0  0  0
  1 23  1  0  0  0  0
  1 24  1  0  0  0  0
  2  3  1  0  0  0  0
  2  4  1  0  0  0  0
  2  7  1  0  0  0  0
  3 25  1  0  0  0  0
  3 26  1  0  0  0  0
  3 27  1  0  0  0  0
  4  5  2  0  0  0  0
  4  6  1  0  0  0  0
  7  8  1  0  0  0  0
  7  9  1  0  0  0  0
  8 28  1  0  0  0  0
  8 29  1  0  0  0  0
  8 30  1  0  0  0  0
  9 10  2  0  0  0  0
  9 11  1  0  0  0  0
 11 12  1  0  0  0  0
 11 31  1  0  0  0  0
 12 17  2  0  0  0  0
 12 13  1  0  0  0  0
 13 14  2  0  0  0  0
 13 32  1  0  0  0  0
 14 15  1  0  0  0  0
 14 33  1  0  0  0  0
 15 21  2  0  0  0  0
 15 16  1  0  0  0  0
 16 17  1  0  0  0  0
 16 18  2  0  0  0  0
 17 34  1  0  0  0  0
 18 19  1  0  0  0  0
 18 35  1  0  0  0  0
 19 20  2  0  0  0  0
 19 36  1  0  0  0  0
 20 21  1  0  0  0  0
 20 37  1  0  0  0  0
M  END
$$$$
ZINC35057308
 OpenBabel01252620473D

 56 59  0  0  1  0  0  0  0  0999 V2000
   -0.3019   -0.1531   -1.1014 C   0  0  0  0  0  0  0  0  0  0  0  0
   -0.0198   -1.1752    0.0016 C   0  0  2  0  0  0  0  0  0  0  0  0
    0.4749   -2.0463   -0.4282 H   0  0  0  0  0  0  0  0  0  0  0  0
   -1.3184   -1.5984    0.6385 C   0  0  0  0  0  0  0  0  0  0  0  0
   -2.1480   -2.2073   -0.0153 O   0  0  0  0  0  0  0  0  0  0  0  0
   -1.5393   -1.3318    1.8075 O   0  0  0  0  0  1  0  0  0  0  0  0
    0.8266   -0.5867    0.9912 O   0  0  0  0  0  0  0  0  0  0  0  0
    2.2227   -0.7365    0.7255 C   0  0  1  0  0  0  0  0  0  0  0  0
    2.3817   -0.8467   -0.3472 H   0  0  0  0  0  0  0  0  0  0  0  0
    2.9795    0.4964    1.2350 C   0  0  1  0  0  0  0  0  0  0  0  0
    2.7668    0.6406    2.2942 H   0  0  0  0  0  0  0  0  0  0  0  0
    4.4834    0.2942    1.0408 C   0  0  1  0  0  0  0  0  0  0  0  0
    5.0200    1.1444    1.4619 H   0  0  0  0  0  0  0  0  0  0  0  0
    4.9049   -0.9060    1.6970 O   0  0  0  0  0  0  0  0  0  0  0  0
    4.2638   -2.0777    1.1981 C   0  0  2  0  0  0  0  0  0  0  0  0
    4.4424   -2.1605    0.1260 H   0  0  0  0  0  0  0  0  0  0  0  0
    2.7547   -1.9710    1.4533 C   0  0  2  0  0  0  0  0  0  0  0  0
    2.5766   -1.8668    2.5236 H   0  0  0  0  0  0  0  0  0  0  0  0
    2.1243   -3.1606    0.9791 O   0  0  0  0  0  0  0  0  0  0  0  0
    2.6157   -4.3469    1.6130 C   0  0  1  0  0  0  0  0  0  0  0  0
    2.1189   -5.2177    1.1852 H   0  0  0  0  0  0  0  0  0  0  0  0
    4.0257   -4.4611    1.4149 O   0  0  0  0  0  0  0  0  0  0  0  0
    4.7829   -3.3339    1.8991 C   0  0  0  0  0  0  0  0  0  0  0  0
    2.3249   -4.2813    3.0902 C   0  0  0  0  0  0  0  0  0  0  0  0
    2.6488   -5.2194    3.9982 C   0  0  0  0  0  0  0  0  0  0  0  0
    2.1906   -4.7520    5.2514 C   0  0  0  0  0  0  0  0  0  0  0  0
    1.6142   -3.5562    5.0343 C   0  0  0  0  0  0  0  0  0  0  0  0
    1.7036   -3.2735    3.7244 O   0  0  0  0  0  0  0  0  0  0  0  0
    4.7722    0.1954   -0.3553 O   0  0  0  0  0  0  0  0  0  0  0  0
    6.0819    0.1177   -0.7104 C   0  0  0  0  0  0  0  0  0  0  0  0
    7.0682    0.1303    0.2648 C   0  0  0  0  0  0  0  0  0  0  0  0
    8.3987    0.0507   -0.0986 C   0  0  0  0  0  0  0  0  0  0  0  0
    8.7483   -0.0411   -1.4333 C   0  0  0  0  0  0  0  0  0  0  0  0
    7.7679   -0.0535   -2.4079 C   0  0  0  0  0  0  0  0  0  0  0  0
    6.4346    0.0197   -2.0495 C   0  0  0  0  0  0  0  0  0  0  0  0
    5.2033   -0.0031   -3.2730 Cl  0  0  0  0  0  0  0  0  0  0  0  0
    2.5466    1.6784    0.4855 N   0  0  0  0  0  0  0  0  0  0  0  0
    2.6236    2.8998    1.0500 C   0  0  0  0  0  0  0  0  0  0  0  0
    3.0513    3.0204    2.1784 O   0  0  0  0  0  0  0  0  0  0  0  0
    2.1782    4.1156    0.2790 C   0  0  0  0  0  0  0  0  0  0  0  0
    0.6411    0.2123   -1.5080 H   0  0  0  0  0  0  0  0  0  0  0  0
   -0.8811   -0.6254   -1.8949 H   0  0  0  0  0  0  0  0  0  0  0  0
   -0.8668    0.6820   -0.6871 H   0  0  0  0  0  0  0  0  0  0  0  0
    5.8375   -3.4767    1.6635 H   0  0  0  0  0  0  0  0  0  0  0  0
    4.6573   -3.2315    2.9769 H   0  0  0  0  0  0  0  0  0  0  0  0
    3.1602   -6.1512    3.8065 H   0  0  0  0  0  0  0  0  0  0  0  0
    2.2850   -5.2582    6.2008 H   0  0  0  0  0  0  0  0  0  0  0  0
    1.1600   -2.9281    5.7864 H   0  0  0  0  0  0  0  0  0  0  0  0
    6.7962    0.2027    1.3075 H   0  0  0  0  0  0  0  0  0  0  0  0
    9.1667    0.0605    0.6607 H   0  0  0  0  0  0  0  0  0  0  0  0
    9.7891   -0.1029   -1.7149 H   0  0  0  0  0  0  0  0  0  0  0  0
    8.0435   -0.1245   -3.4497 H   0  0  0  0  0  0  0  0  0  0  0  0
    2.2045    1.5819   -0.4171 H   0  0  0  0  0  0  0  0  0  0  0  0
    1.1255    4.0132    0.0154 H   0  0  0  0  0  0  0  0  0  0  0  0
    2.3140    5.0055    0.8937 H   0  0  0  0  0  0  0  0  0  0  0  0
    2.7730    4.2076   -0.6298 H   0  0  0  0  0  0  0  0  0  0  0  0
  1  2  1  0  0  0  0
  1 41  1  0  0  0  0
  1 42  1  0  0  0  0
  1 43  1  0  0  0  0
  2  3  1  6  0  0  0
  2  4  1  0  0  0  0
  2  7  1  0  0  0  0
  4  5  2  0  0  0  0
  4  6  1  0  0  0  0
  7  8  1  0  0  0  0
  8  9  1  6  0  0  0
  8 17  1  0  0  0  0
  8 10  1  0  0  0  0
 10 11  1  1  0  0  0
 10 12  1  0  0  0  0
 10 37  1  0  0  0  0
 12 13  1  1  0  0  0
 12 14  1  0  0  0  0
 12 29  1  0  0  0  0
 14 15  1  0  0  0  0
 15 16  1  6  0  0  0
 15 23  1  0  0  0  0
 15 17  1  0  0  0  0
 17 18  1  1  0  0  0
 17 19  1  0  0  0  0
 19 20  1  0  0  0  0
 20 21  1  6  0  0  0
 20 22  1  0  0  0  0
 20 24  1  0  0  0  0
 22 23  1  0  0  0  0
 23 44  1  0  0  0  0
 23 45  1  0  0  0  0
 24 28  1  0  0  0  0
 24 25  2  0  0  0  0
 25 26  1  0  0  0  0
 25 46  1  0  0  0  0
 26 27  2  0  0  0  0
 26 47  1  0  0  0  0
 27 28  1  0  0  0  0
 27 48  1  0  0  0  0
 29 30  1  0  0  0  0
 30 35  2  0  0  0  0
 30 31  1  0  0  0  0
 31 32  2  0  0  0  0
 31 49  1  0  0  0  0
 32 33  1  0  0  0  0
 32 50  1  0  0  0  0
 33 34  2  0  0  0  0
 33 51  1  0  0  0  0
 34 35  1  0  0  0  0
 34 52  1  0  0  0  0
 35 36  1  0  0  0  0
 37 38  1  0  0  0  0
 37 53  1  0  0  0  0
 38 39  2  0  0  0  0
 38 40  1  0  0  0  0
 40 54  1  0  0  0  0
 40 55  1  0  0  0  0
 40 56  1  0  0  0  0
M  END
$$$$
ZINC17211265
 OpenBabel01252620473D

 46 48  0  0  1  0  0  0  0  0999 V2000
   -3.6584    6.4318    1.9008 C   0  0  0  0  0  0  0  0  0  0  0  0
   -3.7212    5.3877    0.8936 O   0  0  0  0  0  0  0  0  0  0  0  0
   -2.6610    4.5704    0.7962 C   0  0  0  0  0  0  0  0  0  0  0  0
   -1.7118    4.7222    1.5283 O   0  0  0  0  0  0  0  0  0  0  0  0
   -2.6544    3.4633   -0.2262 C   0  0  1  0  0  0  0  0  0  0  0  0
   -2.7512    3.8941   -1.2337 H   0  0  0  0  0  0  0  0  0  0  0  0
   -1.3599    2.6978   -0.1295 C   0  0  0  0  0  0  0  0  0  0  0  0
   -0.0923    3.3619   -0.4525 C   0  0  0  0  0  0  0  0  0  0  0  0
   -0.0790    4.5291   -0.7996 O   0  5  0  0  0  0  0  0  0  0  0  0
    1.0601    2.6627   -0.3607 N   0  0  0  0  0  0  0  0  0  0  0  0
    1.0102    1.3413    0.0352 C   0  0  0  0  0  0  0  0  0  0  0  0
    2.1799    0.5939    0.1396 C   0  0  0  0  0  0  0  0  0  0  0  0
    2.1179   -0.7238    0.5361 C   0  0  0  0  0  0  0  0  0  0  0  0
    0.8962   -1.3145    0.8323 C   0  0  0  0  0  0  0  0  0  0  0  0
   -0.2627   -0.6014    0.7370 C   0  0  0  0  0  0  0  0  0  0  0  0
   -0.2277    0.7431    0.3357 C   0  0  0  0  0  0  0  0  0  0  0  0
   -1.3699    1.4511    0.2462 N   0  0  0  0  0  0  0  0  0  0  0  0
    3.3630   -1.5167    0.6469 N   0  0  0  0  0  4  0  0  0  0  0  0
    3.3136   -2.6823    0.9967 O   0  0  0  0  0  0  0  0  0  0  0  0
    4.4369   -1.0034    0.3884 O   0  5  0  0  0  0  0  0  0  0  0  0
   -3.8097    2.5315    0.0350 C   0  0  0  0  0  0  0  0  0  0  0  0
   -3.5845    1.2981    0.3892 N   0  0  0  0  0  0  0  0  0  0  0  0
   -4.6516    0.3985    0.5116 N   0  0  0  0  0  0  0  0  0  0  0  0
   -5.1839    3.0118   -0.1093 C   0  0  0  0  0  0  0  0  0  0  0  0
   -5.7428    2.9422   -1.1884 O   0  0  0  0  0  0  0  0  0  0  0  0
   -5.8311    3.5314    0.9526 N   0  0  0  0  0  0  0  0  0  0  0  0
   -7.1822    3.8777    0.8473 C   0  0  0  0  0  0  0  0  0  0  0  0
   -7.6920    4.3315   -0.3620 C   0  0  0  0  0  0  0  0  0  0  0  0
   -9.0286    4.6687   -0.4638 C   0  0  0  0  0  0  0  0  0  0  0  0
   -9.8563    4.5639    0.6407 C   0  0  0  0  0  0  0  0  0  0  0  0
   -9.3507    4.1170    1.8473 C   0  0  0  0  0  0  0  0  0  0  0  0
   -8.0161    3.7737    1.9544 C   0  0  0  0  0  0  0  0  0  0  0  0
   -7.3822    3.2125    3.4700 Cl  0  0  0  0  0  0  0  0  0  0  0  0
   -9.6684    5.2304   -1.9767 Cl  0  0  0  0  0  0  0  0  0  0  0  0
   -4.5848    7.0242    1.8730 H   0  0  0  0  0  0  0  0  0  0  0  0
   -2.7982    7.0865    1.6971 H   0  0  0  0  0  0  0  0  0  0  0  0
   -3.5446    5.9756    2.8952 H   0  0  0  0  0  0  0  0  0  0  0  0
    3.1335    1.0461   -0.0897 H   0  0  0  0  0  0  0  0  0  0  0  0
    0.8634   -2.3487    1.1416 H   0  0  0  0  0  0  0  0  0  0  0  0
   -1.2068   -1.0713    0.9699 H   0  0  0  0  0  0  0  0  0  0  0  0
   -4.4615   -0.6429    0.8106 H   0  0  0  0  0  0  0  0  0  0  0  0
   -5.6795    0.7336    0.3087 H   0  0  0  0  0  0  0  0  0  0  0  0
   -5.2968    3.6831    1.9021 H   0  0  0  0  0  0  0  0  0  0  0  0
   -7.0457    4.4173   -1.2230 H   0  0  0  0  0  0  0  0  0  0  0  0
  -10.8993    4.8323    0.5598 H   0  0  0  0  0  0  0  0  0  0  0  0
   -9.9991    4.0364    2.7072 H   0  0  0  0  0  0  0  0  0  0  0  0
  1  2  1  0  0  0  0
  1 35  1  0  0  0  0
  1 36  1  0  0  0  0
  1 37  1  0  0  0  0
  2  3  1  0  0  0  0
  3  4  2  0  0  0  0
  3  5  1  0  0  0  0
  5  6  1  6  0  0  0
  5  7  1  0  0  0  0
  5 21  1  0  0  0  0
  7 17  2  0  0  0  0
  7  8  1  0  0  0  0
  8  9  1  0  0  0  0
  8 10  2  0  0  0  0
 10 11  1  0  0  0  0
 11 16  2  0  0  0  0
 11 12  1  0  0  0  0
 12 13  2  0  0  0  0
 12 38  1  0  0  0  0
 13 14  1  0  0  0  0
 13 18  1  0  0  0  0
 14 15  2  0  0  0  0
 14 39  1  0  0  0  0
 15 16  1  0  0  0  0
 15 40  1  0  0  0  0
 16 17  1  0  0  0  0
 18 19  2  0  0  0  0
 18 20  1  0  0  0  0
 21 22  2  0  0  0  0
 21 24  1  0  0  0  0
 22 23  1  0  0  0  0
 23 41  1  0  0  0  0
 23 42  1  0  0  0  0
 24 25  2  0  0  0  0
 24 26  1  0  0  0  0
 26 27  1  0  0  0  0
 26 43  1  0  0  0  0
 27 32  2  0  0  0  0
 27 28  1  0  0  0  0
 28 29  2  0  0  0  0
 28 44  1  0  0  0  0
 29 30  1  0  0  0  0
 29 34  1  0  0  0  0
 30 31  2  0  0  0  0
 30 45  1  0  0  0  0
 31 32  1  0  0  0  0
 31 46  1  0  0  0  0
 32 33  1  0  0  0  0
M  CHG  2   9  -1  20  -1
M  END
$$$$
ZINC02566956
 OpenBabel01252620473D

 16 16  0  0  0  0  0  0  0  0999 V2000
    1.0405    4.0473   -1.1801 C   0  0  0  0  0  0  0  0  0  0  0  0
    0.8501    5.4338   -1.1204 C   0  0  0  0  0  0  0  0  0  0  0  0
    0.7799    6.0512    0.1293 C   0  0  0  0  0  0  0  0  0  0  0  0
    0.8842    5.3414    1.2336 N   0  0  0  0  0  0  0  0  0  0  0  0
    1.0576    4.0338    1.2077 C   0  0  0  0  0  0  0  0  0  0  0  0
    1.1384    3.3473    0.0092 C   0  0  0  0  0  0  0  0  0  0  0  0
    1.3708    1.6007   -0.0024 S   0  0  0  0  0  0  0  0  0  0  0  0
    1.9822    1.2642    1.2353 O   0  0  0  0  0  0  0  0  0  0  0  0
    1.9585    1.2775   -1.2552 O   0  0  0  0  0  0  0  0  0  0  0  0
    0.7322    6.2298   -2.3592 C   0  0  0  0  0  0  0  0  0  0  0  0
    0.7948    5.6819   -3.4415 O   0  0  0  0  0  0  0  0  0  0  0  0
    1.1050    3.5373   -2.1299 H   0  0  0  0  0  0  0  0  0  0  0  0
    0.6385    7.1201    0.1913 H   0  0  0  0  0  0  0  0  0  0  0  0
    1.1382    3.4903    2.1375 H   0  0  0  0  0  0  0  0  0  0  0  0
   -0.0110    0.9628    0.0073 O   0  0  0  0  0  1  0  0  0  0  0  0
    0.5552    7.5634   -2.2886 O   0  0  0  0  0  1  0  0  0  0  0  0
  1  6  2  0  0  0  0
  1  2  1  0  0  0  0
  1 12  1  0  0  0  0
  2  3  2  0  0  0  0
  2 10  1  0  0  0  0
  3  4  1  0  0  0  0
  3 13  1  0  0  0  0
  4  5  2  0  0  0  0
  5  6  1  0  0  0  0
  5 14  1  0  0  0  0
  6  7  1  0  0  0  0
  7  8  2  0  0  0  0
  7  9  2  0  0  0  0
  7 15  1  0  0  0  0
 10 11  2  0  0  0  0
 10 16  1  0  0  0  0
M  END
$$$$
ZINC40209838
 OpenBabel01252620473D

 73 75  0  0  1  0  0  0  0  0999 V2000
   -3.5775   -2.1151   -0.0886 C   0  0  0  0  0  0  0  0  0  0  0  0
   -2.7259   -1.0846   -0.8327 C   0  0  0  0  0  0  0  0  0  0  0  0
   -1.6217   -0.5710    0.0936 C   0  0  1  0  0  0  0  0  0  0  0  0
   -1.0449   -1.4142    0.4736 H   0  0  0  0  0  0  0  0  0  0  0  0
   -0.6989    0.3686   -0.6851 C   0  0  0  0  0  0  0  0  0  0  0  0
   -2.2234    0.1542    1.2153 N   0  0  0  0  0  0  0  0  0  0  0  0
   -2.0223   -0.3203    2.5866 C   0  0  2  0  0  0  0  0  0  0  0  0
   -1.3087   -1.1443    2.5850 H   0  0  0  0  0  0  0  0  0  0  0  0
   -3.3563   -0.8021    3.1604 C   0  0  0  0  0  0  0  0  0  0  0  0
   -1.4798    0.8224    3.4473 C   0  0  0  0  0  0  0  0  0  0  0  0
   -0.2066    1.3815    2.8092 C   0  0  0  0  0  0  0  0  0  0  0  0
   -2.9619    1.2580    0.9856 C   0  0  0  0  0  0  0  0  0  0  0  0
   -3.2279    1.5837   -0.1519 O   0  0  0  0  0  0  0  0  0  0  0  0
   -3.4570    2.0874    2.1423 C   0  0  0  0  0  0  0  0  0  0  0  0
   -4.4904    3.0134    1.6722 N   0  0  0  0  0  0  0  0  0  0  0  0
   -4.2865    4.2912    1.1911 C   0  0  0  0  0  0  0  0  0  0  0  0
   -3.1629    5.0830    0.9956 C   0  0  0  0  0  0  0  0  0  0  0  0
   -3.3044    6.3542    0.4816 C   0  0  0  0  0  0  0  0  0  0  0  0
   -4.5612    6.8467    0.1593 C   0  0  0  0  0  0  0  0  0  0  0  0
   -5.6779    6.0822    0.3453 C   0  0  0  0  0  0  0  0  0  0  0  0
   -5.5586    4.7902    0.8642 C   0  0  0  0  0  0  0  0  0  0  0  0
   -6.4541    3.8121    1.1563 N   0  0  0  0  0  0  0  0  0  0  0  0
   -5.8281    2.7713    1.6232 C   0  0  0  0  0  0  0  0  0  0  0  0
   -6.4892    1.4863    2.0509 C   0  0  0  0  0  0  0  0  0  0  0  0
   -6.8557    1.5703    3.5339 C   0  0  0  0  0  0  0  0  0  0  0  0
   -7.5268    0.2657    3.9681 C   0  0  0  0  0  0  0  0  0  0  0  0
   -7.8778    0.3461    5.3881 N   0  0  0  0  0  0  0  0  0  0  0  0
   -8.4834   -0.6952    5.9926 C   0  0  0  0  0  0  0  0  0  0  0  0
   -8.7378   -1.6988    5.3610 O   0  0  0  0  0  0  0  0  0  0  0  0
   -8.8444   -0.6124    7.4534 C   0  0  0  0  0  0  0  0  0  0  0  0
   -9.4712   -1.8309    7.8589 O   0  0  0  0  0  0  0  0  0  0  0  0
   -9.8618   -1.9215    9.1576 C   0  0  0  0  0  0  0  0  0  0  0  0
   -9.6512   -0.8571   10.0220 C   0  0  0  0  0  0  0  0  0  0  0  0
  -10.0488   -0.9511   11.3417 C   0  0  0  0  0  0  0  0  0  0  0  0
  -10.6564   -2.1060   11.8015 C   0  0  0  0  0  0  0  0  0  0  0  0
  -10.8670   -3.1689   10.9410 C   0  0  0  0  0  0  0  0  0  0  0  0
  -10.4767   -3.0762    9.6190 C   0  0  0  0  0  0  0  0  0  0  0  0
  -11.1547   -2.2219   13.4604 Cl  0  0  0  0  0  0  0  0  0  0  0  0
   -4.3641   -2.4810   -0.7485 H   0  0  0  0  0  0  0  0  0  0  0  0
   -2.9485   -2.9487    0.2239 H   0  0  0  0  0  0  0  0  0  0  0  0
   -4.0265   -1.6499    0.7889 H   0  0  0  0  0  0  0  0  0  0  0  0
   -2.2768   -1.5499   -1.7102 H   0  0  0  0  0  0  0  0  0  0  0  0
   -3.3549   -0.2511   -1.1452 H   0  0  0  0  0  0  0  0  0  0  0  0
    0.1349    0.6677   -0.0499 H   0  0  0  0  0  0  0  0  0  0  0  0
   -0.3174   -0.1455   -1.5673 H   0  0  0  0  0  0  0  0  0  0  0  0
   -1.2567    1.2531   -0.9928 H   0  0  0  0  0  0  0  0  0  0  0  0
   -3.6529   -1.7259    2.6638 H   0  0  0  0  0  0  0  0  0  0  0  0
   -3.2477   -0.9830    4.2297 H   0  0  0  0  0  0  0  0  0  0  0  0
   -4.1186   -0.0405    2.9963 H   0  0  0  0  0  0  0  0  0  0  0  0
   -2.2283    1.6119    3.5168 H   0  0  0  0  0  0  0  0  0  0  0  0
   -1.2521    0.4489    4.4457 H   0  0  0  0  0  0  0  0  0  0  0  0
    0.5418    0.5921    2.7398 H   0  0  0  0  0  0  0  0  0  0  0  0
   -0.4343    1.7551    1.8109 H   0  0  0  0  0  0  0  0  0  0  0  0
    0.1798    2.1956    3.4224 H   0  0  0  0  0  0  0  0  0  0  0  0
   -3.8764    1.4323    2.9059 H   0  0  0  0  0  0  0  0  0  0  0  0
   -2.6270    2.6535    2.5651 H   0  0  0  0  0  0  0  0  0  0  0  0
   -2.1826    4.7048    1.2454 H   0  0  0  0  0  0  0  0  0  0  0  0
   -2.4313    6.9713    0.3290 H   0  0  0  0  0  0  0  0  0  0  0  0
   -4.6574    7.8446   -0.2422 H   0  0  0  0  0  0  0  0  0  0  0  0
   -6.6512    6.4756    0.0918 H   0  0  0  0  0  0  0  0  0  0  0  0
   -7.3926    1.3289    1.4617 H   0  0  0  0  0  0  0  0  0  0  0  0
   -5.8027    0.6545    1.8928 H   0  0  0  0  0  0  0  0  0  0  0  0
   -5.9523    1.7278    4.1231 H   0  0  0  0  0  0  0  0  0  0  0  0
   -7.5422    2.4021    3.6920 H   0  0  0  0  0  0  0  0  0  0  0  0
   -8.4302    0.1082    3.3789 H   0  0  0  0  0  0  0  0  0  0  0  0
   -6.8404   -0.5661    3.8100 H   0  0  0  0  0  0  0  0  0  0  0  0
   -7.6743    1.1488    5.8933 H   0  0  0  0  0  0  0  0  0  0  0  0
   -7.9410   -0.4550    8.0426 H   0  0  0  0  0  0  0  0  0  0  0  0
   -9.5309    0.2194    7.6115 H   0  0  0  0  0  0  0  0  0  0  0  0
   -9.1763    0.0442    9.6636 H   0  0  0  0  0  0  0  0  0  0  0  0
   -9.8850   -0.1227   12.0149 H   0  0  0  0  0  0  0  0  0  0  0  0
  -11.3411   -4.0697   11.3018 H   0  0  0  0  0  0  0  0  0  0  0  0
  -10.6456   -3.9042    8.9465 H   0  0  0  0  0  0  0  0  0  0  0  0
  1  2  1  0  0  0  0
  1 39  1  0  0  0  0
  1 40  1  0  0  0  0
  1 41  1  0  0  0  0
  2  3  1  0  0  0  0
  2 42  1  0  0  0  0
  2 43  1  0  0  0  0
  3  4  1  1  0  0  0
  3  5  1  0  0  0  0
  3  6  1  0  0  0  0
  5 44  1  0  0  0  0
  5 45  1  0  0  0  0
  5 46  1  0  0  0  0
  6  7  1  0  0  0  0
  6 12  1  0  0  0  0
  7  8  1  6  0  0  0
  7  9  1  0  0  0  0
  7 10  1  0  0  0  0
  9 47  1  0  0  0  0
  9 48  1  0  0  0  0
  9 49  1  0  0  0  0
 10 11  1  0  0  0  0
 10 50  1  0  0  0  0
 10 51  1  0  0  0  0
 11 52  1  0  0  0  0
 11 53  1  0  0  0  0
 11 54  1  0  0  0  0
 12 13  2  0  0  0  0
 12 14  1  0  0  0  0
 14 15  1  0  0  0  0
 14 55  1  0  0  0  0
 14 56  1  0  0  0  0
 15 23  1  0  0  0  0
 15 16  1  0  0  0  0
 16 21  2  0  0  0  0
 16 17  1  0  0  0  0
 17 18  2  0  0  0  0
 17 57  1  0  0  0  0
 18 19  1  0  0  0  0
 18 58  1  0  0  0  0
 19 20  2  0  0  0  0
 19 59  1  0  0  0  0
 20 21  1  0  0  0  0
 20 60  1  0  0  0  0
 21 22  1  0  0  0  0
 22 23  2  0  0  0  0
 23 24  1  0  0  0  0
 24 25  1  0  0  0  0
 24 61  1  0  0  0  0
 24 62  1  0  0  0  0
 25 26  1  0  0  0  0
 25 63  1  0  0  0  0
 25 64  1  0  0  0  0
 26 27  1  0  0  0  0
 26 65  1  0  0  0  0
 26 66  1  0  0  0  0
 27 28  1  0  0  0  0
 27 67  1  0  0  0  0
 28 29  2  0  0  0  0
 28 30  1  0  0  0  0
 30 31  1  0  0  0  0
 30 68  1  0  0  0  0
 30 69  1  0  0  0  0
 31 32  1  0  0  0  0
 32 37  2  0  0  0  0
 32 33  1  0  0  0  0
 33 34  2  0  0  0  0
 33 70  1  0  0  0  0
 34 35  1  0  0  0  0
 34 71  1  0  0  0  0
 35 36  2  0  0  0  0
 35 38  1  0  0  0  0
 36 37  1  0  0  0  0
 36 72  1  0  0  0  0
 37 73  1  0  0  0  0
M  END
$$$$
ZINC40075713
 OpenBabel01252620473D

 40 42  0  0  1  0  0  0  0  0999 V2000
    0.6246    1.8572   -0.9810 C   0  0  0  0  0  0  0  0  0  0  0  0
    0.4336    0.3964   -0.6635 C   0  0  0  0  0  0  0  0  0  0  0  0
   -0.7432   -0.2087   -0.4214 C   0  0  0  0  0  0  0  0  0  0  0  0
   -0.4595   -1.5711   -0.1719 C   0  0  0  0  0  0  0  0  0  0  0  0
    0.8736   -1.7171   -0.2764 C   0  0  0  0  0  0  0  0  0  0  0  0
    1.4087   -0.5233   -0.5800 O   0  0  0  0  0  0  0  0  0  0  0  0
    1.6366   -3.0032   -0.0900 C   0  0  1  0  0  0  0  0  0  0  0  0
    1.0022   -3.7490    0.3890 H   0  0  0  0  0  0  0  0  0  0  0  0
    2.1246   -3.5160   -1.4248 C   0  0  0  0  0  0  0  0  0  0  0  0
    3.4750   -3.5570   -1.3572 C   0  0  0  0  0  0  0  0  0  0  0  0
    3.9093   -3.0901   -0.0254 C   0  0  0  0  0  0  0  0  0  0  0  0
    5.0645   -3.0111    0.3432 O   0  0  0  0  0  0  0  0  0  0  0  0
    2.8365   -2.7652    0.7211 N   0  0  0  0  0  0  0  0  0  0  0  0
    2.8616   -2.2632    2.0972 C   0  0  0  0  0  0  0  0  0  0  0  0
    2.8041   -3.4418    3.0712 C   0  0  0  0  0  0  0  0  0  0  0  0
    3.9880   -4.2305    2.9348 O   0  0  0  0  0  0  0  0  0  0  0  0
    4.2979   -3.9623   -2.3528 O   0  5  0  0  0  0  0  0  0  0  0  0
    1.2937   -3.8968   -2.5731 C   0  0  0  0  0  0  0  0  0  0  0  0
    1.3541   -3.2562   -3.6078 O   0  0  0  0  0  0  0  0  0  0  0  0
    0.3912   -5.0476   -2.4751 C   0  0  0  0  0  0  0  0  0  0  0  0
   -0.3814   -5.5625   -3.4938 C   0  0  0  0  0  0  0  0  0  0  0  0
   -1.0796   -6.6522   -2.9539 C   0  0  0  0  0  0  0  0  0  0  0  0
   -0.7141   -6.7575   -1.6559 C   0  0  0  0  0  0  0  0  0  0  0  0
    0.1732   -5.7952   -1.3733 O   0  0  0  0  0  0  0  0  0  0  0  0
   -1.2197   -7.7941   -0.6858 C   0  0  0  0  0  0  0  0  0  0  0  0
    1.6845    2.0601   -1.1344 H   0  0  0  0  0  0  0  0  0  0  0  0
    0.0719    2.1075   -1.8865 H   0  0  0  0  0  0  0  0  0  0  0  0
    0.2555    2.4605   -0.1516 H   0  0  0  0  0  0  0  0  0  0  0  0
   -1.7176    0.2570   -0.4177 H   0  0  0  0  0  0  0  0  0  0  0  0
   -1.1757   -2.3458    0.0588 H   0  0  0  0  0  0  0  0  0  0  0  0
    3.7803   -1.7002    2.2619 H   0  0  0  0  0  0  0  0  0  0  0  0
    2.0024   -1.6131    2.2625 H   0  0  0  0  0  0  0  0  0  0  0  0
    2.7332   -3.0664    4.0920 H   0  0  0  0  0  0  0  0  0  0  0  0
    1.9312   -4.0553    2.8481 H   0  0  0  0  0  0  0  0  0  0  0  0
    4.0199   -4.9970    3.5235 H   0  0  0  0  0  0  0  0  0  0  0  0
   -0.4383   -5.1978   -4.5088 H   0  0  0  0  0  0  0  0  0  0  0  0
   -1.7786   -7.2882   -3.4766 H   0  0  0  0  0  0  0  0  0  0  0  0
   -0.5717   -8.6699   -0.7194 H   0  0  0  0  0  0  0  0  0  0  0  0
   -1.2182   -7.3795    0.3223 H   0  0  0  0  0  0  0  0  0  0  0  0
   -2.2348   -8.0825   -0.9586 H   0  0  0  0  0  0  0  0  0  0  0  0
  1  2  1  0  0  0  0
  1 26  1  0  0  0  0
  1 27  1  0  0  0  0
  1 28  1  0  0  0  0
  2  6  1  0  0  0  0
  2  3  2  0  0  0  0
  3  4  1  0  0  0  0
  3 29  1  0  0  0  0
  4  5  2  0  0  0  0
  4 30  1  0  0  0  0
  5  6  1  0  0  0  0
  5  7  1  0  0  0  0
  7  8  1  1  0  0  0
  7 13  1  0  0  0  0
  7  9  1  0  0  0  0
  9 10  2  0  0  0  0
  9 18  1  0  0  0  0
 10 11  1  0  0  0  0
 10 17  1  0  0  0  0
 11 12  2  0  0  0  0
 11 13  1  0  0  0  0
 13 14  1  0  0  0  0
 14 15  1  0  0  0  0
 14 31  1  0  0  0  0
 14 32  1  0  0  0  0
 15 16  1  0  0  0  0
 15 33  1  0  0  0  0
 15 34  1  0  0  0  0
 16 35  1  0  0  0  0
 18 19  2  0  0  0  0
 18 20  1  0  0  0  0
 20 24  1  0  0  0  0
 20 21  2  0  0  0  0
 21 22  1  0  0  0  0
 21 36  1  0  0  0  0
 22 23  2  0  0  0  0
 22 37  1  0  0  0  0
 23 24  1  0  0  0  0
 23 25  1  0  0  0  0
 25 38  1  0  0  0  0
 25 39  1  0  0  0  0
 25 40  1  0  0  0  0
M  CHG  1  17  -1
M  END
$$$$
ZINC40054476
 OpenBabel01252620473D

 55 57  0  0  1  0  0  0  0  0999 V2000
   -2.6385    1.9140   -3.9741 C   0  0  0  0  0  0  0  0  0  0  0  0
   -2.7163    0.4004   -4.1833 C   0  0  0  0  0  0  0  0  0  0  0  0
   -3.4130   -0.2451   -2.9837 C   0  0  0  0  0  0  0  0  0  0  0  0
   -3.4908   -1.7587   -3.1929 C   0  0  0  0  0  0  0  0  0  0  0  0
   -4.1414   -2.3616   -2.0725 O   0  0  0  0  0  0  0  0  0  0  0  0
   -4.2927   -3.7120   -2.1001 C   0  0  0  0  0  0  0  0  0  0  0  0
   -3.8184   -4.4416   -3.1826 C   0  0  0  0  0  0  0  0  0  0  0  0
   -3.9697   -5.8157   -3.2165 C   0  0  0  0  0  0  0  0  0  0  0  0
   -4.5932   -6.4714   -2.1749 C   0  0  0  0  0  0  0  0  0  0  0  0
   -5.0731   -5.7465   -1.0820 C   0  0  0  0  0  0  0  0  0  0  0  0
   -4.9144   -4.3600   -1.0467 C   0  0  0  0  0  0  0  0  0  0  0  0
   -5.7418   -6.4456    0.0363 C   0  0  0  0  0  0  0  0  0  0  0  0
   -6.0959   -5.8217    1.0189 O   0  0  0  0  0  0  0  0  0  0  0  0
   -5.9782   -7.8902   -0.0390 C   0  0  0  0  0  0  0  0  0  0  0  0
   -7.1794   -8.5085   -0.1237 C   0  0  0  0  0  0  0  0  0  0  0  0
   -6.9699   -9.9708   -0.1791 C   0  0  0  0  0  0  0  0  0  0  0  0
   -7.8548  -10.7995   -0.2585 O   0  0  0  0  0  0  0  0  0  0  0  0
   -5.6544  -10.2483   -0.1290 N   0  0  0  0  0  0  0  0  0  0  0  0
   -4.9277   -8.9761   -0.0438 C   0  0  2  0  0  0  0  0  0  0  0  0
   -4.2711   -8.8586   -0.9059 H   0  0  0  0  0  0  0  0  0  0  0  0
   -4.1248   -8.9259    1.2306 C   0  0  0  0  0  0  0  0  0  0  0  0
   -4.5937   -9.5263    2.3890 C   0  0  0  0  0  0  0  0  0  0  0  0
   -3.8298   -9.4596    3.5388 C   0  0  0  0  0  0  0  0  0  0  0  0
   -2.6689   -8.8343    3.5420 N   0  0  0  0  0  0  0  0  0  0  0  0
   -2.1918   -8.2522    2.4592 C   0  0  0  0  0  0  0  0  0  0  0  0
   -2.8970   -8.2830    1.2710 C   0  0  0  0  0  0  0  0  0  0  0  0
   -5.0534  -11.5841   -0.1595 C   0  0  0  0  0  0  0  0  0  0  0  0
   -4.7755  -11.9853   -1.6095 C   0  0  0  0  0  0  0  0  0  0  0  0
   -4.1478  -13.3803   -1.6413 C   0  0  0  0  0  0  0  0  0  0  0  0
   -3.8882  -13.7551   -2.9956 O   0  0  0  0  0  0  0  0  0  0  0  0
   -8.3807   -7.8870   -0.1523 O   0  5  0  0  0  0  0  0  0  0  0  0
   -2.1423    2.3739   -4.8286 H   0  0  0  0  0  0  0  0  0  0  0  0
   -3.6456    2.3197   -3.8772 H   0  0  0  0  0  0  0  0  0  0  0  0
   -2.0723    2.1269   -3.0673 H   0  0  0  0  0  0  0  0  0  0  0  0
   -3.2825    0.1876   -5.0900 H   0  0  0  0  0  0  0  0  0  0  0  0
   -1.7093   -0.0052   -4.2801 H   0  0  0  0  0  0  0  0  0  0  0  0
   -2.8468   -0.0323   -2.0769 H   0  0  0  0  0  0  0  0  0  0  0  0
   -4.4200    0.1605   -2.8868 H   0  0  0  0  0  0  0  0  0  0  0  0
   -4.0569   -1.9716   -4.0997 H   0  0  0  0  0  0  0  0  0  0  0  0
   -2.4837   -2.1644   -3.2898 H   0  0  0  0  0  0  0  0  0  0  0  0
   -3.3298   -3.9338   -4.0010 H   0  0  0  0  0  0  0  0  0  0  0  0
   -3.5991   -6.3773   -4.0612 H   0  0  0  0  0  0  0  0  0  0  0  0
   -4.7105   -7.5446   -2.2050 H   0  0  0  0  0  0  0  0  0  0  0  0
   -5.2797   -3.7942   -0.2024 H   0  0  0  0  0  0  0  0  0  0  0  0
   -5.5441  -10.0393    2.3929 H   0  0  0  0  0  0  0  0  0  0  0  0
   -4.1880   -9.9248    4.4453 H   0  0  0  0  0  0  0  0  0  0  0  0
   -1.2370   -7.7490    2.5003 H   0  0  0  0  0  0  0  0  0  0  0  0
   -2.4987   -7.8087    0.3862 H   0  0  0  0  0  0  0  0  0  0  0  0
   -4.1183  -11.5746    0.4005 H   0  0  0  0  0  0  0  0  0  0  0  0
   -5.7394  -12.3015    0.2909 H   0  0  0  0  0  0  0  0  0  0  0  0
   -5.7106  -11.9948   -2.1695 H   0  0  0  0  0  0  0  0  0  0  0  0
   -4.0895  -11.2679   -2.0599 H   0  0  0  0  0  0  0  0  0  0  0  0
   -3.2127  -13.3708   -1.0813 H   0  0  0  0  0  0  0  0  0  0  0  0
   -4.8338  -14.0977   -1.1909 H   0  0  0  0  0  0  0  0  0  0  0  0
   -3.4891  -14.6306   -3.0919 H   0  0  0  0  0  0  0  0  0  0  0  0
  1  2  1  0  0  0  0
  1 32  1  0  0  0  0
  1 33  1  0  0  0  0
  1 34  1  0  0  0  0
  2  3  1  0  0  0  0
  2 35  1  0  0  0  0
  2 36  1  0  0  0  0
  3  4  1  0  0  0  0
  3 37  1  0  0  0  0
  3 38  1  0  0  0  0
  4  5  1  0  0  0  0
  4 39  1  0  0  0  0
  4 40  1  0  0  0  0
  5  6  1  0  0  0  0
  6 11  2  0  0  0  0
  6  7  1  0  0  0  0
  7  8  2  0  0  0  0
  7 41  1  0  0  0  0
  8  9  1  0  0  0  0
  8 42  1  0  0  0  0
  9 10  2  0  0  0  0
  9 43  1  0  0  0  0
 10 11  1  0  0  0  0
 10 12  1  0  0  0  0
 11 44  1  0  0  0  0
 12 13  2  0  0  0  0
 12 14  1  0  0  0  0
 14 19  1  0  0  0  0
 14 15  2  0  0  0  0
 15 16  1  0  0  0  0
 15 31  1  0  0  0  0
 16 17  2  0  0  0  0
 16 18  1  0  0  0  0
 18 19  1  0  0  0  0
 18 27  1  0  0  0  0
 19 20  1  6  0  0  0
 19 21  1  0  0  0  0
 21 26  2  0  0  0  0
 21 22  1  0  0  0  0
 22 23  2  0  0  0  0
 22 45  1  0  0  0  0
 23 24  1  0  0  0  0
 23 46  1  0  0  0  0
 24 25  2  0  0  0  0
 25 26  1  0  0  0  0
 25 47  1  0  0  0  0
 26 48  1  0  0  0  0
 27 28  1  0  0  0  0
 27 49  1  0  0  0  0
 27 50  1  0  0  0  0
 28 29  1  0  0  0  0
 28 51  1  0  0  0  0
 28 52  1  0  0  0  0
 29 30  1  0  0  0  0
 29 53  1  0  0  0  0
 29 54  1  0  0  0  0
 30 55  1  0  0  0  0
M  CHG  1  31  -1
M  END
$$$$
ZINC41036021
 OpenBabel01252620473D

 48 49  0  0  1  0  0  0  0  0999 V2000
    2.4997    1.5425    3.6962 C   0  0  0  0  0  0  0  0  0  0  0  0
    2.5219    0.0126    3.6897 C   0  0  1  0  0  0  0  0  0  0  0  0
    3.2268   -0.3437    4.4409 H   0  0  0  0  0  0  0  0  0  0  0  0
    1.1234   -0.5191    4.0098 C   0  0  0  0  0  0  0  0  0  0  0  0
    0.1339   -0.0189    2.9554 C   0  0  0  0  0  0  0  0  0  0  0  0
    0.5652   -0.5169    1.5745 C   0  0  0  0  0  0  0  0  0  0  0  0
    1.9636    0.0148    1.2544 C   0  0  1  0  0  0  0  0  0  0  0  0
    2.9531   -0.4853    2.3088 C   0  0  0  0  0  0  0  0  0  0  0  0
    2.3884   -0.4756   -0.1058 C   0  0  0  0  0  0  0  0  0  0  0  0
    2.6492    0.3243   -0.9882 O   0  0  0  0  0  0  0  0  0  0  0  0
    2.4712   -1.6723   -0.3238 O   0  0  0  0  0  1  0  0  0  0  0  0
    1.9424    1.4797    1.2606 N   0  0  0  0  0  0  0  0  0  0  0  0
    3.0782    2.1711    1.0405 C   0  0  0  0  0  0  0  0  0  0  0  0
    4.1005    1.5827    0.7453 O   0  0  0  0  0  0  0  0  0  0  0  0
    3.0808    3.5146    1.1474 N   0  0  0  0  0  0  0  0  0  0  0  0
    4.3330    4.2730    1.0237 C   0  0  0  0  0  0  0  0  0  0  0  0
    4.1514    5.3534   -0.0470 C   0  0  1  0  0  0  0  0  0  0  0  0
    4.0018    4.8817   -1.0182 H   0  0  0  0  0  0  0  0  0  0  0  0
    2.9302    6.2086    0.2990 C   0  0  0  0  0  0  0  0  0  0  0  0
    1.6777    5.3293    0.3153 C   0  0  1  0  0  0  0  0  0  0  0  0
    1.5514    4.8578   -0.6593 H   0  0  0  0  0  0  0  0  0  0  0  0
    1.8305    4.2491    1.3841 C   0  0  0  0  0  0  0  0  0  0  0  0
    0.4529    6.1912    0.6282 C   0  0  0  0  0  0  0  0  0  0  0  0
    5.3983    6.2387   -0.0959 C   0  0  0  0  0  0  0  0  0  0  0  0
    1.6625    1.8962    3.0944 H   0  0  0  0  0  0  0  0  0  0  0  0
    2.3879    1.8999    4.7198 H   0  0  0  0  0  0  0  0  0  0  0  0
    3.4327    1.9211    3.2789 H   0  0  0  0  0  0  0  0  0  0  0  0
    1.1392   -1.6089    4.0052 H   0  0  0  0  0  0  0  0  0  0  0  0
    0.8162   -0.1643    4.9936 H   0  0  0  0  0  0  0  0  0  0  0  0
   -0.8624   -0.3977    3.1834 H   0  0  0  0  0  0  0  0  0  0  0  0
    0.1181    1.0710    2.9600 H   0  0  0  0  0  0  0  0  0  0  0  0
    0.5810   -1.6067    1.5699 H   0  0  0  0  0  0  0  0  0  0  0  0
   -0.1397   -0.1605    0.8233 H   0  0  0  0  0  0  0  0  0  0  0  0
    3.9494   -0.1065    2.0808 H   0  0  0  0  0  0  0  0  0  0  0  0
    2.9689   -1.5752    2.3042 H   0  0  0  0  0  0  0  0  0  0  0  0
    1.1109    1.9520    1.4231 H   0  0  0  0  0  0  0  0  0  0  0  0
    4.5725    4.7412    1.9784 H   0  0  0  0  0  0  0  0  0  0  0  0
    5.1399    3.6009    0.7314 H   0  0  0  0  0  0  0  0  0  0  0  0
    3.0697    6.6602    1.2811 H   0  0  0  0  0  0  0  0  0  0  0  0
    2.8131    6.9935   -0.4482 H   0  0  0  0  0  0  0  0  0  0  0  0
    0.9867    3.5613    1.3294 H   0  0  0  0  0  0  0  0  0  0  0  0
    1.8613    4.7153    2.3688 H   0  0  0  0  0  0  0  0  0  0  0  0
    0.3459    6.9614   -0.1356 H   0  0  0  0  0  0  0  0  0  0  0  0
   -0.4389    5.5645    0.6397 H   0  0  0  0  0  0  0  0  0  0  0  0
    0.5791    6.6615    1.6034 H   0  0  0  0  0  0  0  0  0  0  0  0
    6.2678    5.6284   -0.3398 H   0  0  0  0  0  0  0  0  0  0  0  0
    5.2686    7.0073   -0.8578 H   0  0  0  0  0  0  0  0  0  0  0  0
    5.5468    6.7111    0.8751 H   0  0  0  0  0  0  0  0  0  0  0  0
  1  2  1  0  0  0  0
  1 25  1  0  0  0  0
  1 26  1  0  0  0  0
  1 27  1  0  0  0  0
  2  3  1  1  0  0  0
  2  8  1  0  0  0  0
  2  4  1  0  0  0  0
  4  5  1  0  0  0  0
  4 28  1  0  0  0  0
  4 29  1  0  0  0  0
  5  6  1  0  0  0  0
  5 30  1  0  0  0  0
  5 31  1  0  0  0  0
  6  7  1  0  0  0  0
  6 32  1  0  0  0  0
  6 33  1  0  0  0  0
  7  8  1  0  0  0  0
  7  9  1  6  0  0  0
  7 12  1  0  0  0  0
  8 34  1  0  0  0  0
  8 35  1  0  0  0  0
  9 10  2  0  0  0  0
  9 11  1  0  0  0  0
 12 13  1  0  0  0  0
 12 36  1  0  0  0  0
 13 14  2  0  0  0  0
 13 15  1  0  0  0  0
 15 22  1  0  0  0  0
 15 16  1  0  0  0  0
 16 17  1  0  0  0  0
 16 37  1  0  0  0  0
 16 38  1  0  0  0  0
 17 18  1  6  0  0  0
 17 19  1  0  0  0  0
 17 24  1  0  0  0  0
 19 20  1  0  0  0  0
 19 39  1  0  0  0  0
 19 40  1  0  0  0  0
 20 21  1  6  0  0  0
 20 22  1  0  0  0  0
 20 23  1  0  0  0  0
 22 41  1  0  0  0  0
 22 42  1  0  0  0  0
 23 43  1  0  0  0  0
 23 44  1  0  0  0  0
 23 45  1  0  0  0  0
 24 46  1  0  0  0  0
 24 47  1  0  0  0  0
 24 48  1  0  0  0  0
M  END
$$$$
ZINC41034444
 OpenBabel01252620473D

 38 39  0  0  1  0  0  0  0  0999 V2000
   -0.0545    1.5207   -0.0094 C   0  0  0  0  0  0  0  0  0  0  0  0
   -0.0277   -0.0091   -0.0142 C   0  0  2  0  0  0  0  0  0  0  0  0
    0.4838   -0.3607   -0.9102 H   0  0  0  0  0  0  0  0  0  0  0  0
   -1.4610   -0.5443   -0.0021 C   0  0  0  0  0  0  0  0  0  0  0  0
   -1.4342   -2.0740   -0.0069 C   0  0  0  0  0  0  0  0  0  0  0  0
   -0.6922   -2.5750    1.2338 C   0  0  0  0  0  0  0  0  0  0  0  0
    0.7411   -2.0398    1.2217 C   0  0  1  0  0  0  0  0  0  0  0  0
    0.7143   -0.5101    1.2265 C   0  0  0  0  0  0  0  0  0  0  0  0
    1.4719   -2.5333    2.4437 C   0  0  0  0  0  0  0  0  0  0  0  0
    2.4742   -3.2164    2.3202 O   0  0  0  0  0  0  0  0  0  0  0  0
    1.0609   -2.2494    3.5559 O   0  0  0  0  0  1  0  0  0  0  0  0
    1.4286   -2.5124    0.0174 N   0  0  0  0  0  0  0  0  0  0  0  0
    1.5728   -3.8345   -0.2012 C   0  0  0  0  0  0  0  0  0  0  0  0
    1.2085   -4.6339    0.6412 O   0  0  0  0  0  0  0  0  0  0  0  0
    2.1683   -4.3095   -1.4531 C   0  0  0  0  0  0  0  0  0  0  0  0
    2.7102   -3.5225   -2.4482 C   0  0  0  0  0  0  0  0  0  0  0  0
    3.1604   -4.3826   -3.4540 C   0  0  0  0  0  0  0  0  0  0  0  0
    2.8919   -5.6549   -3.0652 C   0  0  0  0  0  0  0  0  0  0  0  0
    2.2942   -5.6238   -1.8478 N   0  0  0  0  0  0  0  0  0  0  0  0
    1.8533   -6.7922   -1.0819 C   0  0  0  0  0  0  0  0  0  0  0  0
    3.2599   -7.0877   -3.9736 Cl  0  0  0  0  0  0  0  0  0  0  0  0
    3.9266   -3.9075   -4.9376 Cl  0  0  0  0  0  0  0  0  0  0  0  0
    0.9666    1.9020   -0.0181 H   0  0  0  0  0  0  0  0  0  0  0  0
   -0.5831    1.8776   -0.8933 H   0  0  0  0  0  0  0  0  0  0  0  0
   -0.5660    1.8723    0.8865 H   0  0  0  0  0  0  0  0  0  0  0  0
   -1.9725   -0.1926    0.8939 H   0  0  0  0  0  0  0  0  0  0  0  0
   -1.9896   -0.1873   -0.8860 H   0  0  0  0  0  0  0  0  0  0  0  0
   -2.4553   -2.4553    0.0018 H   0  0  0  0  0  0  0  0  0  0  0  0
   -0.9227   -2.4257   -0.9028 H   0  0  0  0  0  0  0  0  0  0  0  0
   -1.2038   -2.2234    2.1298 H   0  0  0  0  0  0  0  0  0  0  0  0
   -0.6732   -3.6648    1.2304 H   0  0  0  0  0  0  0  0  0  0  0  0
    1.7354   -0.1288    1.2178 H   0  0  0  0  0  0  0  0  0  0  0  0
    0.2028   -0.1584    2.1224 H   0  0  0  0  0  0  0  0  0  0  0  0
    1.7800   -1.8738   -0.6226 H   0  0  0  0  0  0  0  0  0  0  0  0
    2.7740   -2.4444   -2.4501 H   0  0  0  0  0  0  0  0  0  0  0  0
    0.8542   -7.0834   -1.4062 H   0  0  0  0  0  0  0  0  0  0  0  0
    2.5446   -7.6182   -1.2490 H   0  0  0  0  0  0  0  0  0  0  0  0
    1.8330   -6.5445   -0.0206 H   0  0  0  0  0  0  0  0  0  0  0  0
  1  2  1  0  0  0  0
  1 23  1  0  0  0  0
  1 24  1  0  0  0  0
  1 25  1  0  0  0  0
  2  3  1  6  0  0  0
  2  8  1  0  0  0  0
  2  4  1  0  0  0  0
  4  5  1  0  0  0  0
  4 26  1  0  0  0  0
  4 27  1  0  0  0  0
  5  6  1  0  0  0  0
  5 28  1  0  0  0  0
  5 29  1  0  0  0  0
  6  7  1  0  0  0  0
  6 30  1  0  0  0  0
  6 31  1  0  0  0  0
  7  8  1  0  0  0  0
  7  9  1  1  0  0  0
  7 12  1  0  0  0  0
  8 32  1  0  0  0  0
  8 33  1  0  0  0  0
  9 10  2  0  0  0  0
  9 11  1  0  0  0  0
 12 13  1  0  0  0  0
 12 34  1  0  0  0  0
 13 14  2  0  0  0  0
 13 15  1  0  0  0  0
 15 19  1  0  0  0  0
 15 16  2  0  0  0  0
 16 17  1  0  0  0  0
 16 35  1  0  0  0  0
 17 18  2  0  0  0  0
 17 22  1  0  0  0  0
 18 19  1  0  0  0  0
 18 21  1  0  0  0  0
 19 20  1  0  0  0  0
 20 36  1  0  0  0  0
 20 37  1  0  0  0  0
 20 38  1  0  0  0  0
M  END
$$$$
ZINC21931279
 OpenBabel01252620473D

 46 47  0  0  0  0  0  0  0  0999 V2000
   -4.5313   -3.8251    8.7398 C   0  0  0  0  0  0  0  0  0  0  0  0
   -4.5170   -4.4468    7.3670 C   0  0  0  0  0  0  0  0  0  0  0  0
   -5.4796   -5.0712    6.9740 O   0  0  0  0  0  0  0  0  0  0  0  0
   -3.4345   -4.3088    6.5761 N   0  0  0  0  0  0  0  0  0  0  0  0
   -3.4620   -4.7898    5.2624 C   0  0  0  0  0  0  0  0  0  0  0  0
   -4.6456   -4.7640    4.5366 C   0  0  0  0  0  0  0  0  0  0  0  0
   -4.6694   -5.2392    3.2400 C   0  0  0  0  0  0  0  0  0  0  0  0
   -3.5160   -5.7398    2.6643 C   0  0  0  0  0  0  0  0  0  0  0  0
   -2.3370   -5.7717    3.3862 C   0  0  0  0  0  0  0  0  0  0  0  0
   -2.3056   -5.2937    4.6815 C   0  0  0  0  0  0  0  0  0  0  0  0
   -3.5505   -6.3450    1.0099 S   0  0  0  0  0  0  0  0  0  0  0  0
   -4.8962   -6.7135    0.7402 O   0  0  0  0  0  0  0  0  0  0  0  0
   -2.4711   -7.2614    0.8901 O   0  0  0  0  0  0  0  0  0  0  0  0
   -3.2007   -5.0688    0.0143 N   0  0  0  0  0  2  0  0  0  0  0  0
   -1.9412   -4.4658    0.0677 C   0  0  0  0  0  0  0  0  0  0  0  0
   -1.8240   -3.0801    0.0834 C   0  0  0  0  0  0  0  0  0  0  0  0
   -0.5408   -2.5254    0.1322 C   0  0  0  0  0  0  0  0  0  0  0  0
    0.5631   -3.3785    0.1735 C   0  0  0  0  0  0  0  0  0  0  0  0
    0.4042   -4.6854    0.1618 N   0  0  0  0  0  0  0  0  0  0  0  0
   -0.7899   -5.2431    0.1112 C   0  0  0  0  0  0  0  0  0  0  0  0
   -0.3570   -1.0583    0.1460 C   0  0  0  0  0  0  0  0  0  0  0  0
   -1.3251   -0.3242    0.1097 O   0  0  0  0  0  0  0  0  0  0  0  0
    0.8839   -0.5351    0.1988 N   0  0  0  0  0  0  0  0  0  0  0  0
    1.0660    0.9184    0.2125 C   0  0  0  0  0  0  0  0  0  0  0  0
    2.5596    1.2447    0.2747 C   0  0  0  0  0  0  0  0  0  0  0  0
    3.1957    0.7953   -0.9233 O   0  0  0  0  0  0  0  0  0  0  0  0
    4.6005    1.0530   -0.9673 C   0  0  0  0  0  0  0  0  0  0  0  0
   -3.5786   -3.3043    8.9164 H   0  0  0  0  0  0  0  0  0  0  0  0
   -4.6651   -4.6116    9.4971 H   0  0  0  0  0  0  0  0  0  0  0  0
   -5.3606   -3.1056    8.8078 H   0  0  0  0  0  0  0  0  0  0  0  0
   -2.5294   -3.8180    6.9633 H   0  0  0  0  0  0  0  0  0  0  0  0
   -5.5466   -4.3725    4.9854 H   0  0  0  0  0  0  0  0  0  0  0  0
   -5.5896   -5.2194    2.6750 H   0  0  0  0  0  0  0  0  0  0  0  0
   -1.4390   -6.1675    2.9353 H   0  0  0  0  0  0  0  0  0  0  0  0
   -1.3835   -5.3151    5.2434 H   0  0  0  0  0  0  0  0  0  0  0  0
   -2.7001   -2.4492    0.0551 H   0  0  0  0  0  0  0  0  0  0  0  0
    1.5586   -2.9620    0.2158 H   0  0  0  0  0  0  0  0  0  0  0  0
   -0.8743   -6.3198    0.1032 H   0  0  0  0  0  0  0  0  0  0  0  0
    1.7600   -1.1995    0.2316 H   0  0  0  0  0  0  0  0  0  0  0  0
    0.6340    1.3507   -0.7021 H   0  0  0  0  0  0  0  0  0  0  0  0
    0.5609    1.3430    1.0927 H   0  0  0  0  0  0  0  0  0  0  0  0
    2.6935    2.3319    0.3753 H   0  0  0  0  0  0  0  0  0  0  0  0
    3.0098    0.7381    1.1411 H   0  0  0  0  0  0  0  0  0  0  0  0
    5.0124    0.6788   -1.9162 H   0  0  0  0  0  0  0  0  0  0  0  0
    5.0934    0.5424   -0.1269 H   0  0  0  0  0  0  0  0  0  0  0  0
    4.7771    2.1362   -0.8927 H   0  0  0  0  0  0  0  0  0  0  0  0
  1  2  1  0  0  0  0
  1 28  1  0  0  0  0
  1 29  1  0  0  0  0
  1 30  1  0  0  0  0
  2  3  2  0  0  0  0
  2  4  1  0  0  0  0
  4  5  1  0  0  0  0
  4 31  1  0  0  0  0
  5 10  2  0  0  0  0
  5  6  1  0  0  0  0
  6  7  2  0  0  0  0
  6 32  1  0  0  0  0
  7  8  1  0  0  0  0
  7 33  1  0  0  0  0
  8  9  2  0  0  0  0
  8 11  1  0  0  0  0
  9 10  1  0  0  0  0
  9 34  1  0  0  0  0
 10 35  1  0  0  0  0
 11 12  2  0  0  0  0
 11 13  2  0  0  0  0
 11 14  1  0  0  0  0
 14 15  1  0  0  0  0
 15 20  2  0  0  0  0
 15 16  1  0  0  0  0
 16 17  2  0  0  0  0
 16 36  1  0  0  0  0
 17 18  1  0  0  0  0
 17 21  1  0  0  0  0
 18 19  2  0  0  0  0
 18 37  1  0  0  0  0
 19 20  1  0  0  0  0
 20 38  1  0  0  0  0
 21 22  2  0  0  0  0
 21 23  1  0  0  0  0
 23 24  1  0  0  0  0
 23 39  1  0  0  0  0
 24 25  1  0  0  0  0
 24 40  1  0  0  0  0
 24 41  1  0  0  0  0
 25 26  1  0  0  0  0
 25 42  1  0  0  0  0
 25 43  1  0  0  0  0
 26 27  1  0  0  0  0
 27 44  1  0  0  0  0
 27 45  1  0  0  0  0
 27 46  1  0  0  0  0
M  END
$$$$
ZINC40542532
 OpenBabel01252620473D

 18 18  0  0  0  0  0  0  0  0999 V2000
   -0.0184    1.5028    0.0103 C   0  0  0  0  0  0  0  0  0  0  0  0
    0.0021   -0.0041    0.0020 C   0  0  0  0  0  0  0  0  0  0  0  0
    0.0060   -0.6986   -1.1993 C   0  0  0  0  0  0  0  0  0  0  0  0
    0.0245   -2.0219   -1.1717 N   0  0  0  0  0  0  0  0  0  0  0  0
    0.0389   -2.6504   -0.0020 C   0  0  0  0  0  0  0  0  0  0  0  0
    0.0344   -1.9654    1.1351 N   0  0  0  0  0  0  0  0  0  0  0  0
    0.0220   -0.6780    1.1390 N   0  0  0  0  0  0  0  0  0  0  0  0
    0.0637   -4.4117    0.0412 S   0  0  0  0  0  0  0  0  0  0  0  0
    0.0777   -4.8071    1.8116 C   0  0  0  0  0  0  0  0  0  0  0  0
    0.0994   -6.3031    1.9920 C   0  0  0  0  0  0  0  0  0  0  0  0
    0.1049   -7.0348    1.0167 O   0  0  0  0  0  0  0  0  0  0  0  0
    0.1115   -6.7818    3.1133 O   0  0  0  0  0  1  0  0  0  0  0  0
    1.0042    1.8801    0.0026 H   0  0  0  0  0  0  0  0  0  0  0  0
   -0.5455    1.8639   -0.8728 H   0  0  0  0  0  0  0  0  0  0  0  0
   -0.5286    1.8543    0.9071 H   0  0  0  0  0  0  0  0  0  0  0  0
   -0.0063   -0.1687   -2.1403 H   0  0  0  0  0  0  0  0  0  0  0  0
    0.9640   -4.3725    2.2739 H   0  0  0  0  0  0  0  0  0  0  0  0
   -0.8158   -4.3973    2.2825 H   0  0  0  0  0  0  0  0  0  0  0  0
  1  2  1  0  0  0  0
  1 13  1  0  0  0  0
  1 14  1  0  0  0  0
  1 15  1  0  0  0  0
  2  7  2  0  0  0  0
  2  3  1  0  0  0  0
  3  4  2  0  0  0  0
  3 16  1  0  0  0  0
  4  5  1  0  0  0  0
  5  6  2  0  0  0  0
  5  8  1  0  0  0  0
  6  7  1  0  0  0  0
  8  9  1  0  0  0  0
  9 10  1  0  0  0  0
  9 17  1  0  0  0  0
  9 18  1  0  0  0  0
 10 11  2  0  0  0  0
 10 12  1  0  0  0  0
M  END
$$$$
ZINC43764289
 OpenBabel01252620473D

 75 78  0  0  1  0  0  0  0  0999 V2000
    0.4568   -0.5886   -1.2821 C   0  0  0  0  0  0  0  0  0  0  0  0
   -0.3014   -0.2014   -0.0108 C   0  0  1  0  0  0  0  0  0  0  0  0
   -0.4172    0.8818    0.0275 H   0  0  0  0  0  0  0  0  0  0  0  0
   -1.6815   -0.8619   -0.0189 C   0  0  0  0  0  0  0  0  0  0  0  0
   -2.4866   -0.3462   -1.2134 C   0  0  0  0  0  0  0  0  0  0  0  0
   -3.8460   -0.9968   -1.2213 C   0  0  0  0  0  0  0  0  0  0  0  0
   -4.1417   -1.7943   -0.3568 O   0  0  0  0  0  0  0  0  0  0  0  0
   -4.7331   -0.6923   -2.1892 N   0  0  0  0  0  0  0  0  0  0  0  0
   -6.0545   -1.3247   -2.1970 C   0  0  0  0  0  0  0  0  0  0  0  0
   -6.8476   -0.8168   -3.3735 C   0  0  0  0  0  0  0  0  0  0  0  0
   -6.3546   -0.0021   -4.1350 O   0  0  0  0  0  0  0  0  0  0  0  0
   -7.9821   -1.2206   -3.5639 O   0  0  0  0  0  1  0  0  0  0  0  0
    0.4830   -0.6741    1.2148 C   0  0  2  0  0  0  0  0  0  0  0  0
    1.5112   -0.3163    1.1618 H   0  0  0  0  0  0  0  0  0  0  0  0
    0.4615   -2.2121    1.2959 C   0  0  0  0  0  0  0  0  0  0  0  0
   -0.2673   -2.5744    2.6108 C   0  0  0  0  0  0  0  0  0  0  0  0
   -1.1213   -1.3267    2.9017 C   0  0  2  0  0  0  0  0  0  0  0  0
   -1.9925   -1.3273    2.2466 H   0  0  0  0  0  0  0  0  0  0  0  0
   -0.1947   -0.1589    2.5131 C   0  0  1  0  0  0  0  0  0  0  0  0
    0.9202    0.0218    3.5457 C   0  0  2  0  0  0  0  0  0  0  0  0
    1.5824   -0.8434    3.5126 H   0  0  0  0  0  0  0  0  0  0  0  0
    0.3451    0.1595    4.9532 C   0  0  0  0  0  0  0  0  0  0  0  0
   -0.4075   -1.1298    5.2962 C   0  0  2  0  0  0  0  0  0  0  0  0
    0.2586   -1.9836    5.1722 H   0  0  0  0  0  0  0  0  0  0  0  0
   -1.5791   -1.2593    4.3412 C   0  0  1  0  0  0  0  0  0  0  0  0
   -2.5330   -0.0771    4.5313 C   0  0  0  0  0  0  0  0  0  0  0  0
   -3.0199   -0.0355    5.9806 C   0  0  0  0  0  0  0  0  0  0  0  0
   -1.8181    0.1335    6.9127 C   0  0  2  0  0  0  0  0  0  0  0  0
   -1.2932    1.0561    6.6651 H   0  0  0  0  0  0  0  0  0  0  0  0
   -0.9008   -1.0741    6.7407 C   0  0  1  0  0  0  0  0  0  0  0  0
   -1.6425   -2.3688    7.0790 C   0  0  0  0  0  0  0  0  0  0  0  0
   -2.1309   -2.3138    8.5279 C   0  0  0  0  0  0  0  0  0  0  0  0
   -3.0783   -1.1249    8.7011 C   0  0  2  0  0  0  0  0  0  0  0  0
   -3.9316   -1.2398    8.0326 H   0  0  0  0  0  0  0  0  0  0  0  0
   -2.2996    0.1943    8.3631 C   0  0  0  0  0  0  0  0  0  0  0  0
   -3.5363   -1.0738   10.0537 O   0  0  0  0  0  0  0  0  0  0  0  0
    0.2959   -0.9176    7.6811 C   0  0  0  0  0  0  0  0  0  0  0  0
   -2.2837   -2.4609    4.6597 O   0  0  0  0  0  0  0  0  0  0  0  0
    1.6679    1.1974    3.2282 O   0  0  0  0  0  0  0  0  0  0  0  0
   -0.9803    1.1314    2.2707 C   0  0  0  0  0  0  0  0  0  0  0  0
    0.6309   -1.6646   -1.2878 H   0  0  0  0  0  0  0  0  0  0  0  0
   -0.1333   -0.3114   -2.1556 H   0  0  0  0  0  0  0  0  0  0  0  0
    1.4128   -0.0657   -1.3085 H   0  0  0  0  0  0  0  0  0  0  0  0
   -1.5665   -1.9429   -0.0977 H   0  0  0  0  0  0  0  0  0  0  0  0
   -2.2061   -0.6187    0.9051 H   0  0  0  0  0  0  0  0  0  0  0  0
   -2.6017    0.7348   -1.1346 H   0  0  0  0  0  0  0  0  0  0  0  0
   -1.9620   -0.5894   -2.1373 H   0  0  0  0  0  0  0  0  0  0  0  0
   -4.4966   -0.0545   -2.8807 H   0  0  0  0  0  0  0  0  0  0  0  0
   -5.9395   -2.4057   -2.2758 H   0  0  0  0  0  0  0  0  0  0  0  0
   -6.5791   -1.0815   -1.2730 H   0  0  0  0  0  0  0  0  0  0  0  0
   -0.0793   -2.6234    0.4436 H   0  0  0  0  0  0  0  0  0  0  0  0
    1.4802   -2.5993    1.3147 H   0  0  0  0  0  0  0  0  0  0  0  0
   -0.9015   -3.4496    2.4697 H   0  0  0  0  0  0  0  0  0  0  0  0
    0.4503   -2.7443    3.4134 H   0  0  0  0  0  0  0  0  0  0  0  0
    1.1545    0.3130    5.6670 H   0  0  0  0  0  0  0  0  0  0  0  0
   -0.3412    1.0055    4.9882 H   0  0  0  0  0  0  0  0  0  0  0  0
   -2.0115    0.8509    4.2971 H   0  0  0  0  0  0  0  0  0  0  0  0
   -3.3879   -0.1901    3.8646 H   0  0  0  0  0  0  0  0  0  0  0  0
   -3.7027    0.8041    6.1112 H   0  0  0  0  0  0  0  0  0  0  0  0
   -3.5365   -0.9656    6.2178 H   0  0  0  0  0  0  0  0  0  0  0  0
   -2.4968   -2.4830    6.4118 H   0  0  0  0  0  0  0  0  0  0  0  0
   -0.9687   -3.2165    6.9548 H   0  0  0  0  0  0  0  0  0  0  0  0
   -2.6582   -3.2368    8.7690 H   0  0  0  0  0  0  0  0  0  0  0  0
   -1.2769   -2.1981    9.1952 H   0  0  0  0  0  0  0  0  0  0  0  0
   -1.4425    0.3160    9.0254 H   0  0  0  0  0  0  0  0  0  0  0  0
   -2.9761    1.0401    8.4859 H   0  0  0  0  0  0  0  0  0  0  0  0
   -4.0159   -1.8643   10.3368 H   0  0  0  0  0  0  0  0  0  0  0  0
    0.8276    0.0035    7.4425 H   0  0  0  0  0  0  0  0  0  0  0  0
   -0.0552   -0.8778    8.7123 H   0  0  0  0  0  0  0  0  0  0  0  0
    0.9677   -1.7672    7.5586 H   0  0  0  0  0  0  0  0  0  0  0  0
   -3.0214   -2.6538    4.0650 H   0  0  0  0  0  0  0  0  0  0  0  0
    2.3943    1.3787    3.8402 H   0  0  0  0  0  0  0  0  0  0  0  0
   -1.9203    0.8961    1.7716 H   0  0  0  0  0  0  0  0  0  0  0  0
   -1.1870    1.6157    3.2251 H   0  0  0  0  0  0  0  0  0  0  0  0
   -0.3933    1.8016    1.6427 H   0  0  0  0  0  0  0  0  0  0  0  0
  1  2  1  0  0  0  0
  1 41  1  0  0  0  0
  1 42  1  0  0  0  0
  1 43  1  0  0  0  0
  2  3  1  1  0  0  0
  2  4  1  0  0  0  0
  2 13  1  0  0  0  0
  4  5  1  0  0  0  0
  4 44  1  0  0  0  0
  4 45  1  0  0  0  0
  5  6  1  0  0  0  0
  5 46  1  0  0  0  0
  5 47  1  0  0  0  0
  6  7  2  0  0  0  0
  6  8  1  0  0  0  0
  8  9  1  0  0  0  0
  8 48  1  0  0  0  0
  9 10  1  0  0  0  0
  9 49  1  0  0  0  0
  9 50  1  0  0  0  0
 10 11  2  0  0  0  0
 10 12  1  0  0  0  0
 13 14  1  6  0  0  0
 13 19  1  0  0  0  0
 13 15  1  0  0  0  0
 15 16  1  0  0  0  0
 15 51  1  0  0  0  0
 15 52  1  0  0  0  0
 16 17  1  0  0  0  0
 16 53  1  0  0  0  0
 16 54  1  0  0  0  0
 17 18  1  6  0  0  0
 17 25  1  0  0  0  0
 17 19  1  0  0  0  0
 19 20  1  0  0  0  0
 19 40  1  6  0  0  0
 20 21  1  6  0  0  0
 20 22  1  0  0  0  0
 20 39  1  0  0  0  0
 22 23  1  0  0  0  0
 22 55  1  0  0  0  0
 22 56  1  0  0  0  0
 23 24  1  6  0  0  0
 23 30  1  0  0  0  0
 23 25  1  0  0  0  0
 25 26  1  0  0  0  0
 25 38  1  1  0  0  0
 26 27  1  0  0  0  0
 26 57  1  0  0  0  0
 26 58  1  0  0  0  0
 27 28  1  0  0  0  0
 27 59  1  0  0  0  0
 27 60  1  0  0  0  0
 28 29  1  6  0  0  0
 28 35  1  0  0  0  0
 28 30  1  0  0  0  0
 30 31  1  0  0  0  0
 30 37  1  1  0  0  0
 31 32  1  0  0  0  0
 31 61  1  0  0  0  0
 31 62  1  0  0  0  0
 32 33  1  0  0  0  0
 32 63  1  0  0  0  0
 32 64  1  0  0  0  0
 33 34  1  6  0  0  0
 33 35  1  0  0  0  0
 33 36  1  0  0  0  0
 35 65  1  0  0  0  0
 35 66  1  0  0  0  0
 36 67  1  0  0  0  0
 37 68  1  0  0  0  0
 37 69  1  0  0  0  0
 37 70  1  0  0  0  0
 38 71  1  0  0  0  0
 39 72  1  0  0  0  0
 40 73  1  0  0  0  0
 40 74  1  0  0  0  0
 40 75  1  0  0  0  0
M  END
$$$$
ZINC57999065
 OpenBabel01252620473D

 43 43  0  0  0  0  0  0  0  0999 V2000
   -0.0173    1.4248    0.0099 C   0  0  0  0  0  0  0  0  0  0  0  0
    0.0021   -0.0041    0.0020 O   0  0  0  0  0  0  0  0  0  0  0  0
    0.6518   -0.5703   -1.1379 C   0  0  0  0  0  0  0  0  0  0  0  0
    0.6131   -2.0967   -1.0411 C   0  0  0  0  0  0  0  0  0  0  0  0
   -0.7418   -2.5446   -1.1169 O   0  0  0  0  0  0  0  0  0  0  0  0
   -0.8903   -3.9635   -1.0357 C   0  0  0  0  0  0  0  0  0  0  0  0
   -2.3736   -4.3271   -1.1270 C   0  0  0  0  0  0  0  0  0  0  0  0
   -2.5327   -5.8464   -1.0400 C   0  0  0  0  0  0  0  0  0  0  0  0
   -3.9530   -6.1945   -1.1275 N   0  0  0  0  0  0  0  0  0  0  0  0
   -4.3349   -7.4859   -1.0727 C   0  0  0  0  0  0  0  0  0  0  0  0
   -3.5005   -8.3620   -0.9506 O   0  0  0  0  0  0  0  0  0  0  0  0
   -5.7643   -7.8363   -1.1607 C   0  0  0  0  0  0  0  0  0  0  0  0
   -6.7263   -6.8333   -1.3068 C   0  0  0  0  0  0  0  0  0  0  0  0
   -8.0602   -7.1672   -1.3884 C   0  0  0  0  0  0  0  0  0  0  0  0
   -8.4551   -8.4944   -1.3260 C   0  0  0  0  0  0  0  0  0  0  0  0
   -7.5176   -9.4962   -1.1815 C   0  0  0  0  0  0  0  0  0  0  0  0
   -6.1668   -9.1796   -1.1041 C   0  0  0  0  0  0  0  0  0  0  0  0
   -5.2207  -10.1865   -0.9649 N   0  0  0  0  0  2  0  0  0  0  0  0
   -5.7005  -11.7701   -0.8986 S   0  0  0  0  0  0  0  0  0  0  0  0
   -6.4760  -11.8646    0.2884 O   0  0  0  0  0  0  0  0  0  0  0  0
   -6.2854  -12.0252   -2.1682 O   0  0  0  0  0  0  0  0  0  0  0  0
   -4.1632  -12.7158   -0.7174 C   0  0  0  0  0  0  0  0  0  0  0  0
    1.0053    1.8021    0.0021 H   0  0  0  0  0  0  0  0  0  0  0  0
   -0.5445    1.7859   -0.8732 H   0  0  0  0  0  0  0  0  0  0  0  0
   -0.5275    1.7763    0.9067 H   0  0  0  0  0  0  0  0  0  0  0  0
    0.1385   -0.2506   -2.0447 H   0  0  0  0  0  0  0  0  0  0  0  0
    1.6883   -0.2344   -1.1694 H   0  0  0  0  0  0  0  0  0  0  0  0
    1.1847   -2.5275   -1.8631 H   0  0  0  0  0  0  0  0  0  0  0  0
    1.0473   -2.4117   -0.0922 H   0  0  0  0  0  0  0  0  0  0  0  0
   -0.3498   -4.4331   -1.8576 H   0  0  0  0  0  0  0  0  0  0  0  0
   -0.4873   -4.3173   -0.0867 H   0  0  0  0  0  0  0  0  0  0  0  0
   -2.9141   -3.8576   -0.3051 H   0  0  0  0  0  0  0  0  0  0  0  0
   -2.7767   -3.9734   -2.0760 H   0  0  0  0  0  0  0  0  0  0  0  0
   -1.9922   -6.3159   -1.8619 H   0  0  0  0  0  0  0  0  0  0  0  0
   -2.1296   -6.2001   -0.0911 H   0  0  0  0  0  0  0  0  0  0  0  0
   -4.6186   -5.4956   -1.2248 H   0  0  0  0  0  0  0  0  0  0  0  0
   -6.4243   -5.7976   -1.3552 H   0  0  0  0  0  0  0  0  0  0  0  0
   -8.8023   -6.3908   -1.5012 H   0  0  0  0  0  0  0  0  0  0  0  0
   -9.5034   -8.7459   -1.3905 H   0  0  0  0  0  0  0  0  0  0  0  0
   -7.8336  -10.5278   -1.1333 H   0  0  0  0  0  0  0  0  0  0  0  0
   -3.6541  -12.4102    0.1966 H   0  0  0  0  0  0  0  0  0  0  0  0
   -4.3950  -13.7796   -0.6659 H   0  0  0  0  0  0  0  0  0  0  0  0
   -3.5167  -12.5259   -1.5743 H   0  0  0  0  0  0  0  0  0  0  0  0
  1  2  1  0  0  0  0
  1 23  1  0  0  0  0
  1 24  1  0  0  0  0
  1 25  1  0  0  0  0
  2  3  1  0  0  0  0
  3  4  1  0  0  0  0
  3 26  1  0  0  0  0
  3 27  1  0  0  0  0
  4  5  1  0  0  0  0
  4 28  1  0  0  0  0
  4 29  1  0  0  0  0
  5  6  1  0  0  0  0
  6  7  1  0  0  0  0
  6 30  1  0  0  0  0
  6 31  1  0  0  0  0
  7  8  1  0  0  0  0
  7 32  1  0  0  0  0
  7 33  1  0  0  0  0
  8  9  1  0  0  0  0
  8 34  1  0  0  0  0
  8 35  1  0  0  0  0
  9 10  1  0  0  0  0
  9 36  1  0  0  0  0
 10 11  2  0  0  0  0
 10 12  1  0  0  0  0
 12 17  2  0  0  0  0
 12 13  1  0  0  0  0
 13 14  2  0  0  0  0
 13 37  1  0  0  0  0
 14 15  1  0  0  0  0
 14 38  1  0  0  0  0
 15 16  2  0  0  0  0
 15 39  1  0  0  0  0
 16 17  1  0  0  0  0
 16 40  1  0  0  0  0
 17 18  1  0  0  0  0
 18 19  1  0  0  0  0
 19 20  2  0  0  0  0
 19 21  2  0  0  0  0
 19 22  1  0  0  0  0
 22 41  1  0  0  0  0
 22 42  1  0  0  0  0
 22 43  1  0  0  0  0
M  END
$$$$
ZINC03831503
 OpenBabel01252620473D

 31 33  0  0  1  0  0  0  0  0999 V2000
    3.0606    4.4429   -0.7104 C   0  0  0  0  0  0  0  0  0  0  0  0
    1.9357    3.8317   -1.5483 C   0  0  1  0  0  0  0  0  0  0  0  0
    1.7348    2.3237   -1.2235 C   0  0  1  0  0  0  0  0  0  0  0  0
    2.7095    1.8520   -1.0986 H   0  0  0  0  0  0  0  0  0  0  0  0
    0.9535    2.1454    0.0045 N   0  0  0  0  0  0  0  0  0  0  0  0
   -0.0069    3.2119    0.3188 C   0  0  1  0  0  0  0  0  0  0  0  0
    0.0298    3.6133    1.3315 H   0  0  0  0  0  0  0  0  0  0  0  0
    0.2765    4.4493   -1.0135 S   0  0  0  0  0  0  0  0  0  0  0  0
    0.4172    5.7401   -0.4363 O   0  0  0  0  0  0  0  0  0  0  0  0
   -0.6634    4.2421   -2.0590 O   0  0  0  0  0  0  0  0  0  0  0  0
   -1.1199    2.2219    0.0180 C   0  0  0  0  0  0  0  0  0  0  0  0
   -0.0144    1.2086    0.0087 C   0  0  0  0  0  0  0  0  0  0  0  0
    0.0021   -0.0041    0.0020 O   0  0  0  0  0  0  0  0  0  0  0  0
    1.0109    1.6655   -2.3697 C   0  0  0  0  0  0  0  0  0  0  0  0
   -0.1656    1.4081   -2.2732 O   0  0  0  0  0  0  0  0  0  0  0  0
    2.1675    4.0594   -3.0433 C   0  0  0  0  0  0  0  0  0  0  0  0
    2.4687    5.4733   -3.2810 N   0  0  0  0  0  0  0  0  0  0  0  0
    3.5625    5.9551   -3.9153 C   0  0  0  0  0  0  0  0  0  0  0  0
    3.4374    7.3028   -3.9117 C   0  0  0  0  0  0  0  0  0  0  0  0
    2.2883    7.5760   -3.2836 N   0  0  0  0  0  0  0  0  0  0  0  0
    1.7356    6.4704   -2.9272 N   0  0  0  0  0  0  0  0  0  0  0  0
    3.9937    3.9190   -0.9175 H   0  0  0  0  0  0  0  0  0  0  0  0
    3.1715    5.4970   -0.9648 H   0  0  0  0  0  0  0  0  0  0  0  0
    2.8179    4.3482    0.3480 H   0  0  0  0  0  0  0  0  0  0  0  0
   -1.5953    2.3693   -0.9517 H   0  0  0  0  0  0  0  0  0  0  0  0
   -1.8330    2.0937    0.8323 H   0  0  0  0  0  0  0  0  0  0  0  0
    3.0054    3.4481   -3.3784 H   0  0  0  0  0  0  0  0  0  0  0  0
    1.2705    3.7811   -3.5966 H   0  0  0  0  0  0  0  0  0  0  0  0
    4.3726    5.3801   -4.3389 H   0  0  0  0  0  0  0  0  0  0  0  0
    4.1293    8.0172   -4.3327 H   0  0  0  0  0  0  0  0  0  0  0  0
    1.6733    1.3653   -3.4979 O   0  0  0  0  0  1  0  0  0  0  0  0
  1 22  1  0  0  0  0
  1 23  1  0  0  0  0
  1 24  1  0  0  0  0
  2  1  1  1  0  0  0
  2  8  1  0  0  0  0
  2  3  1  0  0  0  0
  2 16  1  0  0  0  0
  3  4  1  1  0  0  0
  3  5  1  0  0  0  0
  3 14  1  0  0  0  0
  5 12  1  0  0  0  0
  5  6  1  0  0  0  0
  6  7  1  1  0  0  0
  6  8  1  0  0  0  0
  6 11  1  0  0  0  0
  8  9  2  0  0  0  0
  8 10  2  0  0  0  0
 11 12  1  0  0  0  0
 11 25  1  0  0  0  0
 11 26  1  0  0  0  0
 12 13  2  0  0  0  0
 14 15  2  0  0  0  0
 14 31  1  0  0  0  0
 16 17  1  0  0  0  0
 16 27  1  0  0  0  0
 16 28  1  0  0  0  0
 17 21  1  0  0  0  0
 17 18  1  0  0  0  0
 18 19  2  0  0  0  0
 18 29  1  0  0  0  0
 19 20  1  0  0  0  0
 19 30  1  0  0  0  0
 20 21  2  0  0  0  0
M  END
$$$$
ZINC09790961
 OpenBabel01252620473D

 49 51  0  0  1  0  0  0  0  0999 V2000
    0.6719    1.5190   -2.0746 C   0  0  0  0  0  0  0  0  0  0  0  0
    0.6792    0.0122   -2.0958 C   0  0  0  0  0  0  0  0  0  0  0  0
    1.2881   -0.5791   -2.9620 O   0  0  0  0  0  0  0  0  0  0  0  0
    0.0089   -0.6783   -1.1521 N   0  0  0  0  0  0  0  0  0  0  0  0
   -0.0763   -2.1384   -1.2349 C   0  0  2  0  0  0  0  0  0  0  0  0
   -0.0530   -2.4451   -2.2806 H   0  0  0  0  0  0  0  0  0  0  0  0
   -1.3831   -2.6102   -0.5940 C   0  0  0  0  0  0  0  0  0  0  0  0
   -2.5504   -2.0965   -1.3970 C   0  0  0  0  0  0  0  0  0  0  0  0
   -2.3562   -1.4198   -2.3846 O   0  0  0  0  0  0  0  0  0  0  0  0
   -3.8101   -2.3892   -1.0176 N   0  0  0  0  0  0  0  0  0  0  0  0
   -4.8948   -1.8357   -1.7068 C   0  0  0  0  0  0  0  0  0  0  0  0
   -6.0496   -1.4845   -1.0201 C   0  0  0  0  0  0  0  0  0  0  0  0
   -7.1185   -0.9384   -1.7033 C   0  0  0  0  0  0  0  0  0  0  0  0
   -7.0396   -0.7413   -3.0697 C   0  0  0  0  0  0  0  0  0  0  0  0
   -5.8913   -1.0903   -3.7565 C   0  0  0  0  0  0  0  0  0  0  0  0
   -4.8166   -1.6311   -3.0782 C   0  0  0  0  0  0  0  0  0  0  0  0
   -8.4055   -0.0443   -3.9377 S   0  0  0  0  0  0  0  0  0  0  0  0
   -8.2864   -0.4671   -5.2891 O   0  0  0  0  0  0  0  0  0  0  0  0
   -9.5618   -0.3097   -3.1555 O   0  0  0  0  0  0  0  0  0  0  0  0
   -8.1998    1.5988   -3.9359 N   0  0  0  0  0  2  0  0  0  0  0  0
   -9.1340    2.4149   -4.5546 C   0  0  0  0  0  0  0  0  0  0  0  0
  -10.2372    2.0659   -5.1815 N   0  0  0  0  0  0  0  0  0  0  0  0
  -11.0301    2.9738   -5.7231 C   0  0  0  0  0  0  0  0  0  0  0  0
  -10.6551    4.2698   -5.6024 C   0  0  0  0  0  0  0  0  0  0  0  0
   -9.1367    4.0932   -4.6800 S   0  0  0  0  0  0  0  0  0  0  0  0
    1.0910   -2.7519   -0.5054 C   0  0  0  0  0  0  0  0  0  0  0  0
    1.4526   -2.2785    0.7420 C   0  0  0  0  0  0  0  0  0  0  0  0
    2.5233   -2.8412    1.4111 C   0  0  0  0  0  0  0  0  0  0  0  0
    3.2322   -3.8777    0.8331 C   0  0  0  0  0  0  0  0  0  0  0  0
    2.8700   -4.3517   -0.4140 C   0  0  0  0  0  0  0  0  0  0  0  0
    1.7966   -3.7918   -1.0812 C   0  0  0  0  0  0  0  0  0  0  0  0
   -0.1692    1.8866   -2.6624 H   0  0  0  0  0  0  0  0  0  0  0  0
    0.5763    1.8675   -1.0462 H   0  0  0  0  0  0  0  0  0  0  0  0
    1.6033    1.8929   -2.4997 H   0  0  0  0  0  0  0  0  0  0  0  0
   -0.4170   -0.2084   -0.4181 H   0  0  0  0  0  0  0  0  0  0  0  0
   -1.4061   -3.6998   -0.5756 H   0  0  0  0  0  0  0  0  0  0  0  0
   -1.4468   -2.2281    0.4248 H   0  0  0  0  0  0  0  0  0  0  0  0
   -3.9648   -2.9835   -0.2668 H   0  0  0  0  0  0  0  0  0  0  0  0
   -6.1119   -1.6386    0.0470 H   0  0  0  0  0  0  0  0  0  0  0  0
   -8.0170   -0.6654   -1.1699 H   0  0  0  0  0  0  0  0  0  0  0  0
   -5.8330   -0.9354   -4.8238 H   0  0  0  0  0  0  0  0  0  0  0  0
   -3.9181   -1.8988   -3.6144 H   0  0  0  0  0  0  0  0  0  0  0  0
  -11.9368    2.6948   -6.2393 H   0  0  0  0  0  0  0  0  0  0  0  0
  -11.1424    5.1640   -5.9620 H   0  0  0  0  0  0  0  0  0  0  0  0
    0.8988   -1.4687    1.1936 H   0  0  0  0  0  0  0  0  0  0  0  0
    2.8063   -2.4709    2.3854 H   0  0  0  0  0  0  0  0  0  0  0  0
    4.0692   -4.3168    1.3555 H   0  0  0  0  0  0  0  0  0  0  0  0
    3.4241   -5.1612   -0.8657 H   0  0  0  0  0  0  0  0  0  0  0  0
    1.5114   -4.1646   -2.0539 H   0  0  0  0  0  0  0  0  0  0  0  0
  1  2  1  0  0  0  0
  1 32  1  0  0  0  0
  1 33  1  0  0  0  0
  1 34  1  0  0  0  0
  2  3  2  0  0  0  0
  2  4  1  0  0  0  0
  4  5  1  0  0  0  0
  4 35  1  0  0  0  0
  5  6  1  6  0  0  0
  5  7  1  0  0  0  0
  5 26  1  0  0  0  0
  7  8  1  0  0  0  0
  7 36  1  0  0  0  0
  7 37  1  0  0  0  0
  8  9  2  0  0  0  0
  8 10  1  0  0  0  0
 10 11  1  0  0  0  0
 10 38  1  0  0  0  0
 11 16  2  0  0  0  0
 11 12  1  0  0  0  0
 12 13  2  0  0  0  0
 12 39  1  0  0  0  0
 13 14  1  0  0  0  0
 13 40  1  0  0  0  0
 14 15  2  0  0  0  0
 14 17  1  0  0  0  0
 15 16  1  0  0  0  0
 15 41  1  0  0  0  0
 16 42  1  0  0  0  0
 17 18  2  0  0  0  0
 17 19  2  0  0  0  0
 17 20  1  0  0  0  0
 20 21  1  0  0  0  0
 21 25  1  0  0  0  0
 21 22  2  0  0  0  0
 22 23  1  0  0  0  0
 23 24  2  0  0  0  0
 23 43  1  0  0  0  0
 24 25  1  0  0  0  0
 24 44  1  0  0  0  0
 26 31  2  0  0  0  0
 26 27  1  0  0  0  0
 27 28  2  0  0  0  0
 27 45  1  0  0  0  0
 28 29  1  0  0  0  0
 28 46  1  0  0  0  0
 29 30  2  0  0  0  0
 29 47  1  0  0  0  0
 30 31  1  0  0  0  0
 30 48  1  0  0  0  0
 31 49  1  0  0  0  0
M  END
$$$$
ZINC13247137
 OpenBabel01252620473D

 38 39  0  0  0  0  0  0  0  0999 V2000
   -0.0167    1.3803    0.0096 C   0  0  0  0  0  0  0  0  0  0  0  0
    1.1664    2.0955    0.0022 C   0  0  0  0  0  0  0  0  0  0  0  0
    2.3789    1.4312   -0.0134 C   0  0  0  0  0  0  0  0  0  0  0  0
    2.4044    0.0312   -0.0211 C   0  0  0  0  0  0  0  0  0  0  0  0
    1.2022   -0.6819   -0.0130 C   0  0  0  0  0  0  0  0  0  0  0  0
    0.0021   -0.0041    0.0020 C   0  0  0  0  0  0  0  0  0  0  0  0
   -1.5136   -0.9026    0.0116 S   0  0  0  0  0  0  0  0  0  0  0  0
   -1.2227   -2.1839    0.5528 O   0  0  0  0  0  0  0  0  0  0  0  0
   -2.4927   -0.0414    0.5764 O   0  0  0  0  0  0  0  0  0  0  0  0
   -1.9498   -1.1438   -1.5676 N   0  0  0  0  0  0  0  0  0  0  0  0
   -1.1173   -1.9775   -2.4383 C   0  0  0  0  0  0  0  0  0  0  0  0
   -1.9051   -2.3454   -3.6973 C   0  0  0  0  0  0  0  0  0  0  0  0
   -1.0357   -3.2161   -4.6067 C   0  0  0  0  0  0  0  0  0  0  0  0
   -1.8116   -3.5784   -5.8467 C   0  0  0  0  0  0  0  0  0  0  0  0
   -1.9251   -2.8140   -6.9909 C   0  0  0  0  0  0  0  0  0  0  0  0
   -2.7423   -3.5373   -7.8968 C   0  0  0  0  0  0  0  0  0  0  0  0
   -3.0878   -4.6600   -7.3178 N   0  0  0  0  0  0  0  0  0  0  0  0
   -2.6091   -5.4317   -5.4053 H   0  0  0  0  0  0  0  0  0  0  0  0
   -2.5141   -4.7065   -6.0425 N   0  0  0  0  0  0  0  0  0  0  0  0
   -3.1126   -3.1255   -9.1780 N   0  0  0  0  0  0  0  0  0  0  0  0
   -1.3300   -1.5317   -7.2198 C   0  0  0  0  0  0  0  0  0  0  0  0
   -0.8579   -0.5146   -7.4013 N   0  0  0  0  0  0  0  0  0  0  0  0
    3.6913   -0.6862   -0.0382 C   0  0  0  0  0  0  0  0  0  0  0  0
    3.7096   -1.9092   -0.0449 O   0  0  0  0  0  0  0  0  0  0  0  0
    4.7412   -0.0588   -0.0456 O   0  0  0  0  0  1  0  0  0  0  0  0
    3.5349    2.1303   -0.0216 F   0  0  0  0  0  0  0  0  0  0  0  0
   -0.9609    1.9045    0.0260 H   0  0  0  0  0  0  0  0  0  0  0  0
    1.1435    3.1752    0.0082 H   0  0  0  0  0  0  0  0  0  0  0  0
    1.2137   -1.7619   -0.0192 H   0  0  0  0  0  0  0  0  0  0  0  0
   -2.7565   -0.7331   -1.9161 H   0  0  0  0  0  0  0  0  0  0  0  0
   -0.2199   -1.4264   -2.7193 H   0  0  0  0  0  0  0  0  0  0  0  0
   -0.8342   -2.8869   -1.9082 H   0  0  0  0  0  0  0  0  0  0  0  0
   -2.8025   -2.8965   -3.4163 H   0  0  0  0  0  0  0  0  0  0  0  0
   -2.1882   -1.4360   -4.2274 H   0  0  0  0  0  0  0  0  0  0  0  0
   -0.1383   -2.6650   -4.8877 H   0  0  0  0  0  0  0  0  0  0  0  0
   -0.7526   -4.1254   -4.0766 H   0  0  0  0  0  0  0  0  0  0  0  0
   -2.8048   -2.2720   -9.5211 H   0  0  0  0  0  0  0  0  0  0  0  0
   -3.6778   -3.6929   -9.7254 H   0  0  0  0  0  0  0  0  0  0  0  0
  1  6  2  0  0  0  0
  1  2  1  0  0  0  0
  1 27  1  0  0  0  0
  2  3  2  0  0  0  0
  2 28  1  0  0  0  0
  3  4  1  0  0  0  0
  3 26  1  0  0  0  0
  4  5  2  0  0  0  0
  4 23  1  0  0  0  0
  5  6  1  0  0  0  0
  5 29  1  0  0  0  0
  6  7  1  0  0  0  0
  7  8  2  0  0  0  0
  7  9  2  0  0  0  0
  7 10  1  0  0  0  0
 10 11  1  0  0  0  0
 10 30  1  0  0  0  0
 11 12  1  0  0  0  0
 11 31  1  0  0  0  0
 11 32  1  0  0  0  0
 12 13  1  0  0  0  0
 12 33  1  0  0  0  0
 12 34  1  0  0  0  0
 13 14  1  0  0  0  0
 13 35  1  0  0  0  0
 13 36  1  0  0  0  0
 14 15  2  0  0  0  0
 14 19  1  0  0  0  0
 15 21  1  0  0  0  0
 15 16  1  0  0  0  0
 16 20  1  0  0  0  0
 16 17  2  0  0  0  0
 17 19  1  0  0  0  0
 18 19  1  0  0  0  0
 20 37  1  0  0  0  0
 20 38  1  0  0  0  0
 21 22  3  0  0  0  0
 23 24  2  0  0  0  0
 23 25  1  0  0  0  0
M  END
$$$$
ZINC49725651
 OpenBabel01252620473D

 36 38  0  0  1  0  0  0  0  0999 V2000
    0.1826    1.0587   -0.9081 C   0  0  0  0  0  0  0  0  0  0  0  0
    1.3634    1.7652   -0.9082 C   0  0  0  0  0  0  0  0  0  0  0  0
    2.3854    1.4202   -0.0205 C   0  0  0  0  0  0  0  0  0  0  0  0
    2.2091    0.3556    0.8702 C   0  0  0  0  0  0  0  0  0  0  0  0
    1.0250   -0.3532    0.8713 C   0  0  0  0  0  0  0  0  0  0  0  0
    0.0035   -0.0066   -0.0182 C   0  0  0  0  0  0  0  0  0  0  0  0
   -1.2602   -0.7616   -0.0184 C   0  0  0  0  0  0  0  0  0  0  0  0
   -1.4328   -1.7893    0.8401 C   0  0  0  0  0  0  0  0  0  0  0  0
   -2.6872   -2.5387    0.8399 C   0  0  0  0  0  0  0  0  0  0  0  0
   -3.5820   -2.2348    0.0610 O   0  0  0  0  0  0  0  0  0  0  0  0
   -2.8437   -3.4708    1.6186 O   0  0  0  0  0  1  0  0  0  0  0  0
    3.1976    0.0215    1.7284 F   0  0  0  0  0  0  0  0  0  0  0  0
    3.6533    2.1794   -0.0226 C   0  0  0  0  0  0  0  0  0  0  0  0
    4.7139    1.5915    0.0612 O   0  0  0  0  0  0  0  0  0  0  0  0
    3.6336    3.5237   -0.1173 N   0  0  0  0  0  0  0  0  0  0  0  0
    2.4373    4.3913   -0.1095 C   0  0  0  0  0  0  0  0  0  0  0  0
    2.9859    5.8478   -0.2219 C   0  0  2  0  0  0  0  0  0  0  0  0
    2.3210    6.6441    0.1127 H   0  0  0  0  0  0  0  0  0  0  0  0
    3.4979    5.9446   -1.6931 C   0  0  0  0  0  0  0  0  0  0  0  0
    4.7068    4.9808   -1.7364 C   0  0  0  0  0  0  0  0  0  0  0  0
    4.8152    4.4248   -0.2439 C   0  0  1  0  0  0  0  0  0  0  0  0
    5.7724    3.9932    0.0485 H   0  0  0  0  0  0  0  0  0  0  0  0
    4.3355    5.6764    0.5647 C   0  0  0  0  0  0  0  0  0  0  0  0
   -0.6082    1.3292   -1.5921 H   0  0  0  0  0  0  0  0  0  0  0  0
    1.5003    2.5871   -1.5954 H   0  0  0  0  0  0  0  0  0  0  0  0
    0.8878   -1.1753    1.5580 H   0  0  0  0  0  0  0  0  0  0  0  0
   -2.0493   -0.4936   -0.7053 H   0  0  0  0  0  0  0  0  0  0  0  0
   -0.6437   -2.0573    1.5270 H   0  0  0  0  0  0  0  0  0  0  0  0
    1.7981    4.1614   -0.9620 H   0  0  0  0  0  0  0  0  0  0  0  0
    1.8856    4.2661    0.8221 H   0  0  0  0  0  0  0  0  0  0  0  0
    2.7246    5.6184   -2.3886 H   0  0  0  0  0  0  0  0  0  0  0  0
    3.8131    6.9627   -1.9214 H   0  0  0  0  0  0  0  0  0  0  0  0
    4.5229    4.1713   -2.4429 H   0  0  0  0  0  0  0  0  0  0  0  0
    5.6149    5.5212   -2.0035 H   0  0  0  0  0  0  0  0  0  0  0  0
    4.9993    6.5312    0.4347 H   0  0  0  0  0  0  0  0  0  0  0  0
    4.1722    5.4448    1.6172 H   0  0  0  0  0  0  0  0  0  0  0  0
  1  6  2  0  0  0  0
  1  2  1  0  0  0  0
  1 24  1  0  0  0  0
  2  3  2  0  0  0  0
  2 25  1  0  0  0  0
  3  4  1  0  0  0  0
  3 13  1  0  0  0  0
  4  5  2  0  0  0  0
  4 12  1  0  0  0  0
  5  6  1  0  0  0  0
  5 26  1  0  0  0  0
  6  7  1  0  0  0  0
  7  8  2  0  0  0  0
  7 27  1  0  0  0  0
  8  9  1  0  0  0  0
  8 28  1  0  0  0  0
  9 10  2  0  0  0  0
  9 11  1  0  0  0  0
 13 14  2  0  0  0  0
 13 15  1  0  0  0  0
 15 21  1  0  0  0  0
 15 16  1  0  0  0  0
 16 17  1  0  0  0  0
 16 29  1  0  0  0  0
 16 30  1  0  0  0  0
 17 18  1  1  0  0  0
 17 23  1  0  0  0  0
 17 19  1  0  0  0  0
 19 20  1  0  0  0  0
 19 31  1  0  0  0  0
 19 32  1  0  0  0  0
 20 21  1  0  0  0  0
 20 33  1  0  0  0  0
 20 34  1  0  0  0  0
 21 22  1  1  0  0  0
 21 23  1  0  0  0  0
 23 35  1  0  0  0  0
 23 36  1  0  0  0  0
M  END
$$$$
ZINC66736285
 OpenBabel01252620473D

 39 39  0  0  1  0  0  0  0  0999 V2000
   -0.0187    1.5258    0.0104 C   0  0  0  0  0  0  0  0  0  0  0  0
    0.0021   -0.0041    0.0020 C   0  0  0  0  0  0  0  0  0  0  0  0
   -1.3386   -0.4987    0.0122 O   0  0  0  0  0  0  0  0  0  0  0  0
   -1.4321   -1.9246    0.0054 C   0  0  0  0  0  0  0  0  0  0  0  0
   -2.9048   -2.3392    0.0172 C   0  0  0  0  0  0  0  0  0  0  0  0
   -3.5292   -1.9136   -1.1956 O   0  0  0  0  0  0  0  0  0  0  0  0
   -4.9143   -2.2532   -1.2865 C   0  0  1  0  0  0  0  0  0  0  0  0
   -5.1007   -3.1709   -0.7287 H   0  0  0  0  0  0  0  0  0  0  0  0
   -5.7570   -1.1193   -0.6992 C   0  0  0  0  0  0  0  0  0  0  0  0
   -5.2871   -2.4594   -2.7320 C   0  0  0  0  0  0  0  0  0  0  0  0
   -4.5728   -1.8574   -3.7055 O   0  5  0  0  0  0  0  0  0  0  0  0
   -6.2896   -3.2118   -3.0387 N   0  0  0  0  0  0  0  0  0  0  0  0
   -6.6993   -3.4384   -4.6272 S   0  0  0  0  0  0  0  0  0  0  0  0
   -7.1419   -2.1797   -5.1160 O   0  0  0  0  0  0  0  0  0  0  0  0
   -5.6269   -4.1536   -5.2252 O   0  0  0  0  0  0  0  0  0  0  0  0
   -8.0977   -4.5100   -4.6567 C   0  0  0  0  0  0  0  0  0  0  0  0
   -7.9151   -5.8811   -4.7152 C   0  0  0  0  0  0  0  0  0  0  0  0
   -9.0055   -6.7305   -4.7392 C   0  0  0  0  0  0  0  0  0  0  0  0
  -10.2880   -6.2145   -4.7050 C   0  0  0  0  0  0  0  0  0  0  0  0
  -10.4785   -4.8302   -4.6454 C   0  0  0  0  0  0  0  0  0  0  0  0
   -9.3700   -3.9805   -4.6158 C   0  0  0  0  0  0  0  0  0  0  0  0
  -11.8029   -4.2869   -4.6100 C   0  0  0  0  0  0  0  0  0  0  0  0
  -12.8536   -3.8558   -4.5820 N   0  0  0  0  0  0  0  0  0  0  0  0
  -11.3534   -7.0449   -4.7294 F   0  0  0  0  0  0  0  0  0  0  0  0
    1.0039    1.9031    0.0027 H   0  0  0  0  0  0  0  0  0  0  0  0
   -0.5459    1.8868   -0.8726 H   0  0  0  0  0  0  0  0  0  0  0  0
   -0.5289    1.8773    0.9072 H   0  0  0  0  0  0  0  0  0  0  0  0
    0.5123   -0.3556   -0.8948 H   0  0  0  0  0  0  0  0  0  0  0  0
    0.5293   -0.3651    0.8851 H   0  0  0  0  0  0  0  0  0  0  0  0
   -0.9516   -2.3160   -0.8913 H   0  0  0  0  0  0  0  0  0  0  0  0
   -0.9346   -2.3255    0.8885 H   0  0  0  0  0  0  0  0  0  0  0  0
   -2.9763   -3.4236    0.1017 H   0  0  0  0  0  0  0  0  0  0  0  0
   -3.4061   -1.8748    0.8664 H   0  0  0  0  0  0  0  0  0  0  0  0
   -6.8135   -1.3783   -0.7685 H   0  0  0  0  0  0  0  0  0  0  0  0
   -5.4873   -0.9701    0.3463 H   0  0  0  0  0  0  0  0  0  0  0  0
   -5.5705   -0.2015   -1.2570 H   0  0  0  0  0  0  0  0  0  0  0  0
   -6.9156   -6.2892   -4.7425 H   0  0  0  0  0  0  0  0  0  0  0  0
   -8.8554   -7.7990   -4.7853 H   0  0  0  0  0  0  0  0  0  0  0  0
   -9.5095   -2.9108   -4.5654 H   0  0  0  0  0  0  0  0  0  0  0  0
  1  2  1  0  0  0  0
  1 25  1  0  0  0  0
  1 26  1  0  0  0  0
  1 27  1  0  0  0  0
  2  3  1  0  0  0  0
  2 28  1  0  0  0  0
  2 29  1  0  0  0  0
  3  4  1  0  0  0  0
  4  5  1  0  0  0  0
  4 30  1  0  0  0  0
  4 31  1  0  0  0  0
  5  6  1  0  0  0  0
  5 32  1  0  0  0  0
  5 33  1  0  0  0  0
  6  7  1  0  0  0  0
  7  8  1  1  0  0  0
  7  9  1  0  0  0  0
  7 10  1  0  0  0  0
  9 34  1  0  0  0  0
  9 35  1  0  0  0  0
  9 36  1  0  0  0  0
 10 11  1  0  0  0  0
 10 12  2  0  0  0  0
 12 13  1  0  0  0  0
 13 14  2  0  0  0  0
 13 15  2  0  0  0  0
 13 16  1  0  0  0  0
 16 21  2  0  0  0  0
 16 17  1  0  0  0  0
 17 18  2  0  0  0  0
 17 37  1  0  0  0  0
 18 19  1  0  0  0  0
 18 38  1  0  0  0  0
 19 20  2  0  0  0  0
 19 24  1  0  0  0  0
 20 21  1  0  0  0  0
 20 22  1  0  0  0  0
 21 39  1  0  0  0  0
 22 23  3  0  0  0  0
M  CHG  1  11  -1
M  END
$$$$
ZINC54051356
 OpenBabel01252620473D

 24 24  0  0  1  0  0  0  0  0999 V2000
   -0.0750    1.5994   -0.0159 C   0  0  0  0  0  0  0  0  0  0  0  0
   -0.0574    0.0698    0.0109 C   0  0  1  0  0  0  0  0  0  0  0  0
    0.4561   -0.2720    0.9096 H   0  0  0  0  0  0  0  0  0  0  0  0
   -1.4723   -0.4490    0.0129 C   0  0  0  0  0  0  0  0  0  0  0  0
   -1.9153   -1.0152   -0.9718 O   0  0  0  0  0  0  0  0  0  0  0  0
   -2.1739   -0.3025    0.9991 O   0  0  0  0  0  1  0  0  0  0  0  0
    0.6448   -0.4313   -1.1732 N   0  0  0  0  0  0  0  0  0  0  0  0
    0.1470   -0.1066   -2.5122 C   0  0  0  0  0  0  0  0  0  0  0  0
    1.7489   -1.1911   -1.0307 C   0  0  0  0  0  0  0  0  0  0  0  0
    2.0999   -1.5522    0.0766 O   0  0  0  0  0  0  0  0  0  0  0  0
    2.5298   -1.5839   -2.2148 C   0  0  0  0  0  0  0  0  0  0  0  0
    3.1894   -2.8651   -2.2936 C   0  0  0  0  0  0  0  0  0  0  0  0
    3.8726   -3.1026   -3.4324 C   0  0  0  0  0  0  0  0  0  0  0  0
    3.6203   -1.6126   -4.3723 S   0  0  0  0  0  0  0  0  0  0  0  0
    2.6605   -0.7486   -3.3011 C   0  0  0  0  0  0  0  0  0  0  0  0
    4.8589   -4.6429   -3.9124 Br  0  0  0  0  0  0  0  0  0  0  0  0
    0.9484    1.9746   -0.0173 H   0  0  0  0  0  0  0  0  0  0  0  0
   -0.5885    1.9412   -0.9146 H   0  0  0  0  0  0  0  0  0  0  0  0
   -0.5975    1.9723    0.8650 H   0  0  0  0  0  0  0  0  0  0  0  0
    0.5449    0.8593   -2.8234 H   0  0  0  0  0  0  0  0  0  0  0  0
    0.4676   -0.8752   -3.2153 H   0  0  0  0  0  0  0  0  0  0  0  0
   -0.9420   -0.0622   -2.4940 H   0  0  0  0  0  0  0  0  0  0  0  0
    3.1396   -3.5873   -1.4922 H   0  0  0  0  0  0  0  0  0  0  0  0
    2.2421    0.2382   -3.4331 H   0  0  0  0  0  0  0  0  0  0  0  0
  1  2  1  0  0  0  0
  1 17  1  0  0  0  0
  1 18  1  0  0  0  0
  1 19  1  0  0  0  0
  2  3  1  1  0  0  0
  2  4  1  0  0  0  0
  2  7  1  0  0  0  0
  4  5  2  0  0  0  0
  4  6  1  0  0  0  0
  7  8  1  0  0  0  0
  7  9  1  0  0  0  0
  8 20  1  0  0  0  0
  8 21  1  0  0  0  0
  8 22  1  0  0  0  0
  9 10  2  0  0  0  0
  9 11  1  0  0  0  0
 11 15  2  0  0  0  0
 11 12  1  0  0  0  0
 12 13  2  0  0  0  0
 12 23  1  0  0  0  0
 13 14  1  0  0  0  0
 13 16  1  0  0  0  0
 14 15  1  0  0  0  0
 15 24  1  0  0  0  0
M  END
$$$$
ZINC38594970
 OpenBabel01252620473D

 31 32  0  0  1  0  0  0  0  0999 V2000
   -0.0184    1.5028    0.0103 C   0  0  0  0  0  0  0  0  0  0  0  0
    0.0021   -0.0041    0.0020 C   0  0  0  0  0  0  0  0  0  0  0  0
    0.0058   -0.6863   -1.1964 C   0  0  0  0  0  0  0  0  0  0  0  0
    0.0251   -2.0801   -1.2033 C   0  0  0  0  0  0  0  0  0  0  0  0
    0.0407   -2.7801    0.0021 C   0  0  0  0  0  0  0  0  0  0  0  0
    0.0369   -2.0922    1.1973 C   0  0  0  0  0  0  0  0  0  0  0  0
    0.0230   -0.7039    1.2009 C   0  0  0  0  0  0  0  0  0  0  0  0
    0.0245   -0.0289    2.3801 O   0  0  0  0  0  0  0  0  0  0  0  0
   -1.2478    0.2757    2.9549 C   0  0  0  0  0  0  0  0  0  0  0  0
    0.0533   -2.8482    2.5009 C   0  0  0  0  0  0  0  0  0  0  0  0
    0.0287   -2.8170   -2.4908 C   0  0  0  0  0  0  0  0  0  0  0  0
    0.0414   -4.1590   -2.6082 C   0  0  0  0  0  0  0  0  0  0  0  0
    0.0385   -4.3928   -4.1085 C   0  0  1  0  0  0  0  0  0  0  0  0
   -0.8542   -4.9403   -4.4109 H   0  0  0  0  0  0  0  0  0  0  0  0
    0.0232   -3.0281   -4.6608 N   0  0  0  0  0  0  0  0  0  0  0  0
    0.0137   -2.2337   -3.7181 N   0  0  0  0  0  0  0  0  0  0  0  0
    1.2822   -5.1293   -4.5346 C   0  0  0  0  0  0  0  0  0  0  0  0
    1.2895   -6.3481   -4.5625 O   0  0  0  0  0  0  0  0  0  0  0  0
    2.2812   -4.5063   -4.8515 O   0  0  0  0  0  1  0  0  0  0  0  0
    1.0042    1.8801    0.0026 H   0  0  0  0  0  0  0  0  0  0  0  0
   -0.5455    1.8639   -0.8728 H   0  0  0  0  0  0  0  0  0  0  0  0
   -0.5286    1.8543    0.9071 H   0  0  0  0  0  0  0  0  0  0  0  0
   -0.0067   -0.1413   -2.1287 H   0  0  0  0  0  0  0  0  0  0  0  0
    0.0554   -3.8600   -0.0001 H   0  0  0  0  0  0  0  0  0  0  0  0
   -1.8200    0.8947    2.2638 H   0  0  0  0  0  0  0  0  0  0  0  0
   -1.7902   -0.6499    3.1480 H   0  0  0  0  0  0  0  0  0  0  0  0
   -1.1038    0.8145    3.8914 H   0  0  0  0  0  0  0  0  0  0  0  0
    1.0848   -3.0165    2.8104 H   0  0  0  0  0  0  0  0  0  0  0  0
   -0.4650   -2.2676    3.2641 H   0  0  0  0  0  0  0  0  0  0  0  0
   -0.4482   -3.8072    2.3711 H   0  0  0  0  0  0  0  0  0  0  0  0
    0.0518   -4.8965   -1.8193 H   0  0  0  0  0  0  0  0  0  0  0  0
  1  2  1  0  0  0  0
  1 20  1  0  0  0  0
  1 21  1  0  0  0  0
  1 22  1  0  0  0  0
  2  7  2  0  0  0  0
  2  3  1  0  0  0  0
  3  4  2  0  0  0  0
  3 23  1  0  0  0  0
  4  5  1  0  0  0  0
  4 11  1  0  0  0  0
  5  6  2  0  0  0  0
  5 24  1  0  0  0  0
  6  7  1  0  0  0  0
  6 10  1  0  0  0  0
  7  8  1  0  0  0  0
  8  9  1  0  0  0  0
  9 25  1  0  0  0  0
  9 26  1  0  0  0  0
  9 27  1  0  0  0  0
 10 28  1  0  0  0  0
 10 29  1  0  0  0  0
 10 30  1  0  0  0  0
 11 16  1  0  0  0  0
 11 12  2  0  0  0  0
 12 13  1  0  0  0  0
 12 31  1  0  0  0  0
 13 14  1  6  0  0  0
 13 15  1  0  0  0  0
 13 17  1  0  0  0  0
 15 16  2  0  0  0  0
 17 18  2  0  0  0  0
 17 19  1  0  0  0  0
M  END
$$$$
ZINC19813921
 OpenBabel01252620473D

 45 47  0  0  0  0  0  0  0  0999 V2000
   -8.1522    8.5467   -1.3370 C   0  0  0  0  0  0  0  0  0  0  0  0
   -7.0585    8.6949   -0.3109 C   0  0  0  0  0  0  0  0  0  0  0  0
   -7.2230    9.5621    0.7536 C   0  0  0  0  0  0  0  0  0  0  0  0
   -6.2219    9.7005    1.6973 C   0  0  0  0  0  0  0  0  0  0  0  0
   -5.0541    8.9724    1.5793 C   0  0  0  0  0  0  0  0  0  0  0  0
   -4.8860    8.1009    0.5116 C   0  0  0  0  0  0  0  0  0  0  0  0
   -5.8906    7.9684   -0.4375 C   0  0  0  0  0  0  0  0  0  0  0  0
   -3.7023    7.3608    0.3891 N   0  0  0  0  0  0  0  0  0  0  0  0
   -3.7399    6.0240    0.5662 C   0  0  0  0  0  0  0  0  0  0  0  0
   -4.7836    5.4578    0.8303 O   0  0  0  0  0  0  0  0  0  0  0  0
   -2.4798    5.2675    0.4313 C   0  0  0  0  0  0  0  0  0  0  0  0
   -2.4398    3.8962    0.5985 C   0  0  0  0  0  0  0  0  0  0  0  0
   -1.2261    3.1539    0.2620 C   0  0  0  0  0  0  0  0  0  0  0  0
   -0.5936    3.3562   -0.9740 C   0  0  0  0  0  0  0  0  0  0  0  0
    0.5488    2.6528   -1.2822 C   0  0  0  0  0  0  0  0  0  0  0  0
    1.0784    1.7439   -0.3769 C   0  0  0  0  0  0  0  0  0  0  0  0
    0.4676    1.5330    0.8433 C   0  0  0  0  0  0  0  0  0  0  0  0
   -0.6867    2.2263    1.1731 C   0  0  0  0  0  0  0  0  0  0  0  0
   -1.2904    2.0154    2.3687 O   0  0  0  0  0  0  0  0  0  0  0  0
   -0.6825    1.0626    3.2433 C   0  0  0  0  0  0  0  0  0  0  0  0
   -1.4868    0.9623    4.5137 C   0  0  0  0  0  0  0  0  0  0  0  0
   -2.4788    1.6373    4.6557 O   0  0  0  0  0  0  0  0  0  0  0  0
   -1.1011    0.1229    5.4877 O   0  0  0  0  0  1  0  0  0  0  0  0
    1.4007    2.9260   -2.9482 Br  0  0  0  0  0  0  0  0  0  0  0  0
   -1.2628    6.0416    0.1158 C   0  0  0  0  0  0  0  0  0  0  0  0
   -0.1855    5.4902   -0.0062 O   0  5  0  0  0  0  0  0  0  0  0  0
   -1.3797    7.3766   -0.0392 N   0  0  0  0  0  0  0  0  0  0  0  0
   -2.5594    7.9976    0.0983 C   0  0  0  0  0  0  0  0  0  0  0  0
   -2.5948    9.2034   -0.0492 O   0  0  0  0  0  0  0  0  0  0  0  0
   -6.4054   10.6463    2.8562 C   0  0  0  0  0  0  0  0  0  0  0  0
   -8.9965    9.1991   -1.0697 H   0  0  0  0  0  0  0  0  0  0  0  0
   -8.4911    7.5005   -1.3631 H   0  0  0  0  0  0  0  0  0  0  0  0
   -7.7672    8.8323   -2.3271 H   0  0  0  0  0  0  0  0  0  0  0  0
   -8.1351   10.1327    0.8478 H   0  0  0  0  0  0  0  0  0  0  0  0
   -4.2724    9.0812    2.3165 H   0  0  0  0  0  0  0  0  0  0  0  0
   -5.7607    7.2949   -1.2717 H   0  0  0  0  0  0  0  0  0  0  0  0
   -3.3212    3.3633    0.9848 H   0  0  0  0  0  0  0  0  0  0  0  0
   -1.0024    4.0620   -1.6820 H   0  0  0  0  0  0  0  0  0  0  0  0
    1.9750    1.1970   -0.6290 H   0  0  0  0  0  0  0  0  0  0  0  0
    0.8875    0.8232    1.5406 H   0  0  0  0  0  0  0  0  0  0  0  0
   -0.6516    0.0798    2.7502 H   0  0  0  0  0  0  0  0  0  0  0  0
    0.3416    1.3853    3.4822 H   0  0  0  0  0  0  0  0  0  0  0  0
   -5.5105   10.6210    3.4954 H   0  0  0  0  0  0  0  0  0  0  0  0
   -7.2841   10.3408    3.4432 H   0  0  0  0  0  0  0  0  0  0  0  0
   -6.5556   11.6675    2.4758 H   0  0  0  0  0  0  0  0  0  0  0  0
  1  2  1  0  0  0  0
  1 31  1  0  0  0  0
  1 32  1  0  0  0  0
  1 33  1  0  0  0  0
  2  7  2  0  0  0  0
  2  3  1  0  0  0  0
  3  4  2  0  0  0  0
  3 34  1  0  0  0  0
  4  5  1  0  0  0  0
  4 30  1  0  0  0  0
  5  6  2  0  0  0  0
  5 35  1  0  0  0  0
  6  7  1  0  0  0  0
  6  8  1  0  0  0  0
  7 36  1  0  0  0  0
  8 28  1  0  0  0  0
  8  9  1  0  0  0  0
  9 10  2  0  0  0  0
  9 11  1  0  0  0  0
 11 12  2  0  0  0  0
 11 25  1  0  0  0  0
 12 13  1  0  0  0  0
 12 37  1  0  0  0  0
 13 18  2  0  0  0  0
 13 14  1  0  0  0  0
 14 15  2  0  0  0  0
 14 38  1  0  0  0  0
 15 16  1  0  0  0  0
 15 24  1  0  0  0  0
 16 17  2  0  0  0  0
 16 39  1  0  0  0  0
 17 18  1  0  0  0  0
 17 40  1  0  0  0  0
 18 19  1  0  0  0  0
 19 20  1  0  0  0  0
 20 21  1  0  0  0  0
 20 41  1  0  0  0  0
 20 42  1  0  0  0  0
 21 22  2  0  0  0  0
 21 23  1  0  0  0  0
 25 26  1  0  0  0  0
 25 27  2  0  0  0  0
 27 28  1  0  0  0  0
 28 29  2  0  0  0  0
 30 43  1  0  0  0  0
 30 44  1  0  0  0  0
 30 45  1  0  0  0  0
M  CHG  1  26  -1
M  END
$$$$
ZINC51263139
 OpenBabel01252620473D

 43 45  0  0  0  0  0  0  0  0999 V2000
    0.3956    1.4059    1.2262 C   0  0  0  0  0  0  0  0  0  0  0  0
    1.2049    2.0261    0.2840 C   0  0  0  0  0  0  0  0  0  0  0  0
    2.0652    1.2673   -0.4980 C   0  0  0  0  0  0  0  0  0  0  0  0
    2.1150   -0.1044   -0.3400 C   0  0  0  0  0  0  0  0  0  0  0  0
    1.3075   -0.7273    0.5997 C   0  0  0  0  0  0  0  0  0  0  0  0
    0.4466    0.0301    1.3861 C   0  0  0  0  0  0  0  0  0  0  0  0
   -0.3480   -0.5628    2.3187 O   0  0  0  0  0  0  0  0  0  0  0  0
   -0.5433   -1.9756    2.1937 C   0  0  0  0  0  0  0  0  0  0  0  0
    0.8225   -2.6291    1.9433 C   0  0  0  0  0  0  0  0  0  0  0  0
    1.3677   -2.0809    0.7384 O   0  0  0  0  0  0  0  0  0  0  0  0
    2.9291    1.9281   -1.5021 N   0  0  0  0  0  4  0  0  0  0  0  0
    3.6339    1.2627   -2.2248 O   0  0  0  0  0  0  0  0  0  0  0  0
    2.9299    3.1332   -1.5995 O   0  5  0  0  0  0  0  0  0  0  0  0
    1.1534    3.4158    0.1223 N   0  0  0  0  0  0  0  0  0  0  0  0
   -0.0469    4.0560    0.1182 C   0  0  0  0  0  0  0  0  0  0  0  0
   -1.1891    3.3449    0.1577 O   0  5  0  0  0  0  0  0  0  0  0  0
   -0.0941    5.4527    0.0728 C   0  0  0  0  0  0  0  0  0  0  0  0
    1.1210    6.2092    0.0307 C   0  0  0  0  0  0  0  0  0  0  0  0
    2.0850    6.8093   -0.0027 N   0  0  0  0  0  0  0  0  0  0  0  0
   -1.3372    6.1157    0.0684 C   0  0  0  0  0  0  0  0  0  0  0  0
   -2.3683    5.4738    0.1041 O   0  0  0  0  0  0  0  0  0  0  0  0
   -1.3881    7.6211    0.0195 C   0  0  0  0  0  0  0  0  0  0  0  0
   -2.7849    8.0629    0.0247 N   0  0  0  0  0  0  0  0  0  0  0  0
   -3.5933    8.2672   -1.1831 C   0  0  0  0  0  0  0  0  0  0  0  0
   -5.0597    8.2941   -0.6980 C   0  0  0  0  0  0  0  0  0  0  0  0
   -4.8977    8.7519    0.7701 C   0  0  0  0  0  0  0  0  0  0  0  0
   -3.4926    8.3277    1.1364 C   0  0  0  0  0  0  0  0  0  0  0  0
   -3.0658    8.2417    2.2684 O   0  0  0  0  0  0  0  0  0  0  0  0
   -0.2708    1.9961    1.8378 H   0  0  0  0  0  0  0  0  0  0  0  0
    2.7842   -0.6929   -0.9500 H   0  0  0  0  0  0  0  0  0  0  0  0
   -0.9763   -2.3696    3.1130 H   0  0  0  0  0  0  0  0  0  0  0  0
   -1.2087   -2.1819    1.3553 H   0  0  0  0  0  0  0  0  0  0  0  0
    1.4901   -2.4171    2.7785 H   0  0  0  0  0  0  0  0  0  0  0  0
    0.7000   -3.7067    1.8344 H   0  0  0  0  0  0  0  0  0  0  0  0
    1.9735    3.9221    0.0133 H   0  0  0  0  0  0  0  0  0  0  0  0
   -0.8744    8.0305    0.8893 H   0  0  0  0  0  0  0  0  0  0  0  0
   -0.8995    7.9718   -0.8895 H   0  0  0  0  0  0  0  0  0  0  0  0
   -3.3344    9.2154   -1.6543 H   0  0  0  0  0  0  0  0  0  0  0  0
   -3.4422    7.4443   -1.8818 H   0  0  0  0  0  0  0  0  0  0  0  0
   -5.6462    9.0140   -1.2687 H   0  0  0  0  0  0  0  0  0  0  0  0
   -5.5060    7.3010   -0.7499 H   0  0  0  0  0  0  0  0  0  0  0  0
   -5.0058    9.8338    0.8464 H   0  0  0  0  0  0  0  0  0  0  0  0
   -5.6238    8.2490    1.4088 H   0  0  0  0  0  0  0  0  0  0  0  0
  1  6  2  0  0  0  0
  1  2  1  0  0  0  0
  1 29  1  0  0  0  0
  2  3  2  0  0  0  0
  2 14  1  0  0  0  0
  3  4  1  0  0  0  0
  3 11  1  0  0  0  0
  4  5  2  0  0  0  0
  4 30  1  0  0  0  0
  5 10  1  0  0  0  0
  5  6  1  0  0  0  0
  6  7  1  0  0  0  0
  7  8  1  0  0  0  0
  8  9  1  0  0  0  0
  8 31  1  0  0  0  0
  8 32  1  0  0  0  0
  9 10  1  0  0  0  0
  9 33  1  0  0  0  0
  9 34  1  0  0  0  0
 11 12  2  0  0  0  0
 11 13  1  0  0  0  0
 14 15  1  0  0  0  0
 14 35  1  0  0  0  0
 15 16  1  0  0  0  0
 15 17  2  0  0  0  0
 17 18  1  0  0  0  0
 17 20  1  0  0  0  0
 18 19  3  0  0  0  0
 20 21  2  0  0  0  0
 20 22  1  0  0  0  0
 22 23  1  0  0  0  0
 22 36  1  0  0  0  0
 22 37  1  0  0  0  0
 23 27  1  0  0  0  0
 23 24  1  0  0  0  0
 24 25  1  0  0  0  0
 24 38  1  0  0  0  0
 24 39  1  0  0  0  0
 25 26  1  0  0  0  0
 25 40  1  0  0  0  0
 25 41  1  0  0  0  0
 26 27  1  0  0  0  0
 26 42  1  0  0  0  0
 26 43  1  0  0  0  0
 27 28  2  0  0  0  0
M  CHG  2  13  -1  16  -1
M  END
$$$$
ZINC13508908
 OpenBabel01252620473D

 37 39  0  0  0  0  0  0  0  0999 V2000
   -0.3968    1.5079    0.0407 C   0  0  0  0  0  0  0  0  0  0  0  0
   -0.4940    0.0040    0.0447 C   0  0  0  0  0  0  0  0  0  0  0  0
   -0.7295   -0.6766   -1.1334 C   0  0  0  0  0  0  0  0  0  0  0  0
   -0.8189   -2.0567   -1.1308 C   0  0  0  0  0  0  0  0  0  0  0  0
   -0.6728   -2.7606    0.0510 C   0  0  0  0  0  0  0  0  0  0  0  0
   -0.4366   -2.0874    1.2328 C   0  0  0  0  0  0  0  0  0  0  0  0
   -0.3409   -0.7001    1.2334 C   0  0  0  0  0  0  0  0  0  0  0  0
   -0.0972   -0.0169    2.4240 N   0  0  0  0  0  0  0  0  0  0  0  0
    0.0445   -0.6720    3.5262 N   0  0  0  0  0  0  0  0  0  0  0  0
    0.1462   -0.0229    4.6718 C   0  0  0  0  0  0  0  0  0  0  0  0
   -0.4952    1.2903    4.8566 C   0  0  0  0  0  0  0  0  0  0  0  0
   -1.2277    1.8866    3.8315 C   0  0  0  0  0  0  0  0  0  0  0  0
   -1.8142    3.1160    4.0410 C   0  0  0  0  0  0  0  0  0  0  0  0
   -1.6806    3.7630    5.2623 C   0  0  0  0  0  0  0  0  0  0  0  0
   -0.9674    3.1980    6.2804 C   0  0  0  0  0  0  0  0  0  0  0  0
   -0.3603    1.9485    6.0978 C   0  0  0  0  0  0  0  0  0  0  0  0
    0.4053    1.3262    7.1725 C   0  0  0  0  0  0  0  0  0  0  0  0
    0.9962    0.1238    7.0108 C   0  0  0  0  0  0  0  0  0  0  0  0
    0.8980   -0.5944    5.7996 C   0  0  0  0  0  0  0  0  0  0  0  0
    1.4393   -1.6828    5.6868 O   0  0  0  0  0  0  0  0  0  0  0  0
   -1.1202   -2.9206   -2.6367 S   0  0  0  0  0  0  0  0  0  0  0  0
   -1.8492   -4.1309   -2.2907 O   0  0  0  0  0  0  0  0  0  0  0  0
   -1.9067   -2.0353   -3.4815 O   0  0  0  0  0  0  0  0  0  0  0  0
    0.1787   -3.2169   -3.2208 O   0  0  0  0  0  1  0  0  0  0  0  0
    0.6381    1.8046   -0.1295 H   0  0  0  0  0  0  0  0  0  0  0  0
   -1.0255    1.9105   -0.7534 H   0  0  0  0  0  0  0  0  0  0  0  0
   -0.7327    1.8962    1.0022 H   0  0  0  0  0  0  0  0  0  0  0  0
   -0.8445   -0.1305   -2.0581 H   0  0  0  0  0  0  0  0  0  0  0  0
   -0.7439   -3.8383    0.0492 H   0  0  0  0  0  0  0  0  0  0  0  0
   -0.3231   -2.6376    2.1552 H   0  0  0  0  0  0  0  0  0  0  0  0
   -0.0343    0.9510    2.4236 H   0  0  0  0  0  0  0  0  0  0  0  0
   -1.3347    1.3886    2.8791 H   0  0  0  0  0  0  0  0  0  0  0  0
   -2.3823    3.5802    3.2484 H   0  0  0  0  0  0  0  0  0  0  0  0
   -2.1467    4.7262    5.4088 H   0  0  0  0  0  0  0  0  0  0  0  0
   -0.8714    3.7133    7.2247 H   0  0  0  0  0  0  0  0  0  0  0  0
    0.5016    1.8392    8.1179 H   0  0  0  0  0  0  0  0  0  0  0  0
    1.5548   -0.3022    7.8311 H   0  0  0  0  0  0  0  0  0  0  0  0
  1  2  1  0  0  0  0
  1 25  1  0  0  0  0
  1 26  1  0  0  0  0
  1 27  1  0  0  0  0
  2  7  2  0  0  0  0
  2  3  1  0  0  0  0
  3  4  2  0  0  0  0
  3 28  1  0  0  0  0
  4  5  1  0  0  0  0
  4 21  1  0  0  0  0
  5  6  2  0  0  0  0
  5 29  1  0  0  0  0
  6  7  1  0  0  0  0
  6 30  1  0  0  0  0
  7  8  1  0  0  0  0
  8  9  1  0  0  0  0
  8 31  1  0  0  0  0
  9 10  2  0  0  0  0
 10 19  1  0  0  0  0
 10 11  1  0  0  0  0
 11 16  2  0  0  0  0
 11 12  1  0  0  0  0
 12 13  2  0  0  0  0
 12 32  1  0  0  0  0
 13 14  1  0  0  0  0
 13 33  1  0  0  0  0
 14 15  2  0  0  0  0
 14 34  1  0  0  0  0
 15 16  1  0  0  0  0
 15 35  1  0  0  0  0
 16 17  1  0  0  0  0
 17 18  2  0  0  0  0
 17 36  1  0  0  0  0
 18 19  1  0  0  0  0
 18 37  1  0  0  0  0
 19 20  2  0  0  0  0
 21 22  2  0  0  0  0
 21 23  2  0  0  0  0
 21 24  1  0  0  0  0
M  END
$$$$
ZINC50977169
 OpenBabel01252620473D

 43 44  0  0  0  0  0  0  0  0999 V2000
   -0.1216    1.1351    0.2901 C   0  0  0  0  0  0  0  0  0  0  0  0
   -0.5964   -0.2210   -0.2358 C   0  0  0  0  0  0  0  0  0  0  0  0
    0.2949   -0.6746   -1.2565 O   0  0  0  0  0  0  0  0  0  0  0  0
    0.0165   -1.8628   -1.8280 C   0  0  0  0  0  0  0  0  0  0  0  0
   -0.9564   -2.4963   -1.4695 O   0  0  0  0  0  0  0  0  0  0  0  0
    0.8925   -2.3941   -2.8885 C   0  0  0  0  0  0  0  0  0  0  0  0
    2.0156   -1.6692   -3.2983 C   0  0  0  0  0  0  0  0  0  0  0  0
    2.8311   -2.1681   -4.2884 C   0  0  0  0  0  0  0  0  0  0  0  0
    2.5386   -3.3925   -4.8819 C   0  0  0  0  0  0  0  0  0  0  0  0
    1.4215   -4.1168   -4.4765 C   0  0  0  0  0  0  0  0  0  0  0  0
    0.6052   -3.6268   -3.4826 C   0  0  0  0  0  0  0  0  0  0  0  0
    3.3658   -3.8941   -5.8846 N   0  0  0  0  0  0  0  0  0  0  0  0
    3.5567   -5.2374   -6.0012 C   0  0  0  0  0  0  0  0  0  0  0  0
    3.0401   -6.0729   -5.0811 O   0  5  0  0  0  0  0  0  0  0  0  0
    4.2891   -5.7483   -7.0762 C   0  0  0  0  0  0  0  0  0  0  0  0
    4.8387   -4.8594   -8.0551 C   0  0  0  0  0  0  0  0  0  0  0  0
    5.2747   -4.1541   -8.8316 N   0  0  0  0  0  0  0  0  0  0  0  0
    4.4867   -7.1386   -7.1969 C   0  0  0  0  0  0  0  0  0  0  0  0
    4.0204   -7.8928   -6.3663 O   0  0  0  0  0  0  0  0  0  0  0  0
    5.2764   -7.6895   -8.3561 C   0  0  0  0  0  0  0  0  0  0  0  0
    5.3408   -9.2145   -8.2504 C   0  0  0  0  0  0  0  0  0  0  0  0
    6.1305   -9.7655   -9.4096 C   0  0  0  0  0  0  0  0  0  0  0  0
    5.4984  -10.1037  -10.5914 C   0  0  0  0  0  0  0  0  0  0  0  0
    6.2380  -10.5968  -11.6147 C   0  0  0  0  0  0  0  0  0  0  0  0
    7.8813  -10.5947  -10.9172 S   0  0  0  0  0  0  0  0  0  0  0  0
    7.4722   -9.9316   -9.3109 C   0  0  0  0  0  0  0  0  0  0  0  0
    0.8821    1.0335    0.7030 H   0  0  0  0  0  0  0  0  0  0  0  0
   -0.1071    1.8567   -0.5267 H   0  0  0  0  0  0  0  0  0  0  0  0
   -0.8014    1.4811    1.0687 H   0  0  0  0  0  0  0  0  0  0  0  0
   -0.6108   -0.9426    0.5809 H   0  0  0  0  0  0  0  0  0  0  0  0
   -1.6000   -0.1194   -0.6487 H   0  0  0  0  0  0  0  0  0  0  0  0
    2.2428   -0.7186   -2.8386 H   0  0  0  0  0  0  0  0  0  0  0  0
    3.6988   -1.6086   -4.6054 H   0  0  0  0  0  0  0  0  0  0  0  0
    1.1974   -5.0666   -4.9392 H   0  0  0  0  0  0  0  0  0  0  0  0
   -0.2591   -4.1914   -3.1653 H   0  0  0  0  0  0  0  0  0  0  0  0
    3.8056   -3.2865   -6.4996 H   0  0  0  0  0  0  0  0  0  0  0  0
    4.7915   -7.4103   -9.2915 H   0  0  0  0  0  0  0  0  0  0  0  0
    6.2867   -7.2809   -8.3344 H   0  0  0  0  0  0  0  0  0  0  0  0
    5.8257   -9.4937   -7.3150 H   0  0  0  0  0  0  0  0  0  0  0  0
    4.3305   -9.6232   -8.2721 H   0  0  0  0  0  0  0  0  0  0  0  0
    4.4311   -9.9774  -10.6977 H   0  0  0  0  0  0  0  0  0  0  0  0
    5.9165  -10.9100  -12.5971 H   0  0  0  0  0  0  0  0  0  0  0  0
    8.1242   -9.7190   -8.4767 H   0  0  0  0  0  0  0  0  0  0  0  0
  1  2  1  0  0  0  0
  1 27  1  0  0  0  0
  1 28  1  0  0  0  0
  1 29  1  0  0  0  0
  2  3  1  0  0  0  0
  2 30  1  0  0  0  0
  2 31  1  0  0  0  0
  3  4  1  0  0  0  0
  4  5  2  0  0  0  0
  4  6  1  0  0  0  0
  6 11  2  0  0  0  0
  6  7  1  0  0  0  0
  7  8  2  0  0  0  0
  7 32  1  0  0  0  0
  8  9  1  0  0  0  0
  8 33  1  0  0  0  0
  9 10  2  0  0  0  0
  9 12  1  0  0  0  0
 10 11  1  0  0  0  0
 10 34  1  0  0  0  0
 11 35  1  0  0  0  0
 12 13  1  0  0  0  0
 12 36  1  0  0  0  0
 13 14  1  0  0  0  0
 13 15  2  0  0  0  0
 15 16  1  0  0  0  0
 15 18  1  0  0  0  0
 16 17  3  0  0  0  0
 18 19  2  0  0  0  0
 18 20  1  0  0  0  0
 20 21  1  0  0  0  0
 20 37  1  0  0  0  0
 20 38  1  0  0  0  0
 21 22  1  0  0  0  0
 21 39  1  0  0  0  0
 21 40  1  0  0  0  0
 22 26  2  0  0  0  0
 22 23  1  0  0  0  0
 23 24  2  0  0  0  0
 23 41  1  0  0  0  0
 24 25  1  0  0  0  0
 24 42  1  0  0  0  0
 25 26  1  0  0  0  0
 26 43  1  0  0  0  0
M  CHG  1  14  -1
M  END
$$$$
ZINC12526111
 OpenBabel01252620473D

 40 41  0  0  0  0  0  0  0  0999 V2000
   -0.9572    1.6169    0.0209 C   0  0  0  0  0  0  0  0  0  0  0  0
   -0.7492    0.1668    0.0333 N   0  0  0  0  0  0  0  0  0  0  0  0
    0.6088   -0.3778    0.1068 C   0  0  0  0  0  0  0  0  0  0  0  0
   -2.0492   -0.8568   -0.0357 S   0  0  0  0  0  0  0  0  0  0  0  0
   -1.6290   -2.0863    0.5395 O   0  0  0  0  0  0  0  0  0  0  0  0
   -3.1662   -0.1284    0.4552 O   0  0  0  0  0  0  0  0  0  0  0  0
   -2.3678   -1.1802   -1.7382 C   0  0  0  0  0  0  0  0  0  0  0  0
   -3.2276   -0.3614   -2.4466 C   0  0  0  0  0  0  0  0  0  0  0  0
   -3.4812   -0.6100   -3.7830 C   0  0  0  0  0  0  0  0  0  0  0  0
   -2.8733   -1.6816   -4.4160 C   0  0  0  0  0  0  0  0  0  0  0  0
   -2.0068   -2.5072   -3.7030 C   0  0  0  0  0  0  0  0  0  0  0  0
   -1.7531   -2.2485   -2.3638 C   0  0  0  0  0  0  0  0  0  0  0  0
   -1.3901   -3.5918   -4.3373 N   0  0  0  0  0  0  0  0  0  0  0  0
   -1.1193   -4.9953   -3.5012 S   0  0  0  0  0  0  0  0  0  0  0  0
   -0.6109   -5.9347   -4.4383 O   0  0  0  0  0  0  0  0  0  0  0  0
   -0.4117   -4.6359   -2.3225 O   0  0  0  0  0  0  0  0  0  0  0  0
   -2.6893   -5.6026   -2.9805 C   0  0  0  0  0  0  0  0  0  0  0  0
   -3.2110   -5.2112   -1.7611 C   0  0  0  0  0  0  0  0  0  0  0  0
   -4.4415   -5.6858   -1.3507 C   0  0  0  0  0  0  0  0  0  0  0  0
   -5.1543   -6.5558   -2.1632 C   0  0  0  0  0  0  0  0  0  0  0  0
   -4.6290   -6.9466   -3.3861 C   0  0  0  0  0  0  0  0  0  0  0  0
   -3.3999   -6.4652   -3.7942 C   0  0  0  0  0  0  0  0  0  0  0  0
   -5.3866   -7.8748   -4.2550 N   0  0  0  0  0  4  0  0  0  0  0  0
   -4.9282   -8.2151   -5.3207 O   0  0  0  0  0  0  0  0  0  0  0  0
   -6.4637   -8.2928   -3.8990 O   0  5  0  0  0  0  0  0  0  0  0  0
   -6.3650   -7.0246   -1.7614 O   0  5  0  0  0  0  0  0  0  0  0  0
   -3.1221   -1.9275   -5.7303 O   0  5  0  0  0  0  0  0  0  0  0  0
    0.0069    2.1227    0.0723 H   0  0  0  0  0  0  0  0  0  0  0  0
   -1.4689    1.9027   -0.8982 H   0  0  0  0  0  0  0  0  0  0  0  0
   -1.5645    1.9042    0.8792 H   0  0  0  0  0  0  0  0  0  0  0  0
    0.8904   -0.5120    1.1512 H   0  0  0  0  0  0  0  0  0  0  0  0
    0.6428   -1.3395   -0.4052 H   0  0  0  0  0  0  0  0  0  0  0  0
    1.3036    0.3129   -0.3710 H   0  0  0  0  0  0  0  0  0  0  0  0
   -3.7028    0.4744   -1.9547 H   0  0  0  0  0  0  0  0  0  0  0  0
   -4.1536    0.0314   -4.3334 H   0  0  0  0  0  0  0  0  0  0  0  0
   -1.0784   -2.8839   -1.8093 H   0  0  0  0  0  0  0  0  0  0  0  0
   -1.1212   -3.5213   -5.2666 H   0  0  0  0  0  0  0  0  0  0  0  0
   -2.6557   -4.5340   -1.1290 H   0  0  0  0  0  0  0  0  0  0  0  0
   -4.8482   -5.3804   -0.3980 H   0  0  0  0  0  0  0  0  0  0  0  0
   -2.9922   -6.7662   -4.7479 H   0  0  0  0  0  0  0  0  0  0  0  0
  1  2  1  0  0  0  0
  1 28  1  0  0  0  0
  1 29  1  0  0  0  0
  1 30  1  0  0  0  0
  2  3  1  0  0  0  0
  2  4  1  0  0  0  0
  3 31  1  0  0  0  0
  3 32  1  0  0  0  0
  3 33  1  0  0  0  0
  4  5  2  0  0  0  0
  4  6  2  0  0  0  0
  4  7  1  0  0  0  0
  7 12  2  0  0  0  0
  7  8  1  0  0  0  0
  8  9  2  0  0  0  0
  8 34  1  0  0  0  0
  9 10  1  0  0  0  0
  9 35  1  0  0  0  0
 10 11  2  0  0  0  0
 10 27  1  0  0  0  0
 11 12  1  0  0  0  0
 11 13  1  0  0  0  0
 12 36  1  0  0  0  0
 13 14  1  0  0  0  0
 13 37  1  0  0  0  0
 14 15  2  0  0  0  0
 14 16  2  0  0  0  0
 14 17  1  0  0  0  0
 17 22  2  0  0  0  0
 17 18  1  0  0  0  0
 18 19  2  0  0  0  0
 18 38  1  0  0  0  0
 19 20  1  0  0  0  0
 19 39  1  0  0  0  0
 20 21  2  0  0  0  0
 20 26  1  0  0  0  0
 21 22  1  0  0  0  0
 21 23  1  0  0  0  0
 22 40  1  0  0  0  0
 23 24  2  0  0  0  0
 23 25  1  0  0  0  0
M  CHG  3  25  -1  26  -1  27  -1
M  END
$$$$
ZINC37406365
 OpenBabel01252620473D

 29 28  0  0  0  0  0  0  0  0999 V2000
   -0.0187    1.5258    0.0104 C   0  0  0  0  0  0  0  0  0  0  0  0
    0.0021   -0.0041    0.0020 C   0  0  0  0  0  0  0  0  0  0  0  0
    0.7421   -0.5109    1.2415 C   0  0  0  0  0  0  0  0  0  0  0  0
   -1.4333   -0.5336    0.0129 C   0  0  0  0  0  0  0  0  0  0  0  0
    0.6709   -0.4649   -1.1737 O   0  0  0  0  0  0  0  0  0  0  0  0
    1.9483   -0.0860   -1.3362 C   0  0  0  0  0  0  0  0  0  0  0  0
    2.4810    0.6138   -0.5076 O   0  0  0  0  0  0  0  0  0  0  0  0
    2.7182   -0.5334   -2.5520 C   0  0  0  0  0  0  0  0  0  0  0  0
    4.4020    0.1377   -2.4823 S   0  0  0  0  0  0  0  0  0  0  0  0
    5.1854   -0.4844   -3.9955 C   0  0  0  0  0  0  0  0  0  0  0  0
    6.6303    0.0141   -4.0637 C   0  0  0  0  0  0  0  0  0  0  0  0
    7.2812   -0.5027   -5.3209 C   0  0  0  0  0  0  0  0  0  0  0  0
    6.6480   -1.2047   -6.0909 O   0  0  0  0  0  0  0  0  0  0  0  0
    8.4408   -0.2189   -5.5680 O   0  0  0  0  0  1  0  0  0  0  0  0
    1.0039    1.9031    0.0027 H   0  0  0  0  0  0  0  0  0  0  0  0
   -0.5459    1.8868   -0.8726 H   0  0  0  0  0  0  0  0  0  0  0  0
   -0.5289    1.8773    0.9072 H   0  0  0  0  0  0  0  0  0  0  0  0
    0.2319   -0.1594    2.1383 H   0  0  0  0  0  0  0  0  0  0  0  0
    0.7568   -1.6008    1.2356 H   0  0  0  0  0  0  0  0  0  0  0  0
    1.7647   -0.1336    1.2338 H   0  0  0  0  0  0  0  0  0  0  0  0
   -1.9605   -0.1726   -0.8702 H   0  0  0  0  0  0  0  0  0  0  0  0
   -1.4185   -1.6235    0.0069 H   0  0  0  0  0  0  0  0  0  0  0  0
   -1.9435   -0.1821    0.9097 H   0  0  0  0  0  0  0  0  0  0  0  0
    2.7617   -1.6223   -2.5741 H   0  0  0  0  0  0  0  0  0  0  0  0
    2.2197   -0.1713   -3.4512 H   0  0  0  0  0  0  0  0  0  0  0  0
    5.1771   -1.5743   -3.9873 H   0  0  0  0  0  0  0  0  0  0  0  0
    4.6351   -0.1233   -4.8643 H   0  0  0  0  0  0  0  0  0  0  0  0
    6.6387    1.1040   -4.0720 H   0  0  0  0  0  0  0  0  0  0  0  0
    7.1807   -0.3469   -3.1949 H   0  0  0  0  0  0  0  0  0  0  0  0
  1  2  1  0  0  0  0
  1 15  1  0  0  0  0
  1 16  1  0  0  0  0
  1 17  1  0  0  0  0
  2  3  1  0  0  0  0
  2  4  1  0  0  0  0
  2  5  1  0  0  0  0
  3 18  1  0  0  0  0
  3 19  1  0  0  0  0
  3 20  1  0  0  0  0
  4 21  1  0  0  0  0
  4 22  1  0  0  0  0
  4 23  1  0  0  0  0
  5  6  1  0  0  0  0
  6  7  2  0  0  0  0
  6  8  1  0  0  0  0
  8  9  1  0  0  0  0
  8 24  1  0  0  0  0
  8 25  1  0  0  0  0
  9 10  1  0  0  0  0
 10 11  1  0  0  0  0
 10 26  1  0  0  0  0
 10 27  1  0  0  0  0
 11 12  1  0  0  0  0
 11 28  1  0  0  0  0
 11 29  1  0  0  0  0
 12 13  2  0  0  0  0
 12 14  1  0  0  0  0
M  END
$$$$
ZINC41918091
 OpenBabel01252620473D

 36 37  0  0  1  0  0  0  0  0999 V2000
   -0.4308    1.5182    0.3757 C   0  0  0  0  0  0  0  0  0  0  0  0
   -0.4100   -0.0117    0.3673 C   0  0  1  0  0  0  0  0  0  0  0  0
   -1.3541   -0.3900    0.7595 H   0  0  0  0  0  0  0  0  0  0  0  0
   -0.2163   -0.5112   -1.0658 C   0  0  0  0  0  0  0  0  0  0  0  0
    1.1088    0.0198   -1.6163 C   0  0  0  0  0  0  0  0  0  0  0  0
    2.2609   -0.4794   -0.7420 C   0  0  0  0  0  0  0  0  0  0  0  0
    2.0672    0.0202    0.6911 C   0  0  0  0  0  0  0  0  0  0  0  0
    0.7421   -0.5109    1.2415 C   0  0  1  0  0  0  0  0  0  0  0  0
    0.5512   -0.0189    2.6531 C   0  0  0  0  0  0  0  0  0  0  0  0
    0.4420   -0.8178    3.5676 O   0  0  0  0  0  0  0  0  0  0  0  0
    0.5061    1.1781    2.8806 O   0  0  0  0  0  1  0  0  0  0  0  0
    0.7619   -1.9757    1.2335 N   0  0  0  0  0  0  0  0  0  0  0  0
    1.8927   -2.6844    1.1264 C   0  0  0  0  0  0  0  0  0  0  0  0
    3.0070   -2.2176    1.0263 O   0  0  0  0  0  0  0  0  0  0  0  0
    1.5595   -4.1602    1.1508 C   0  0  0  0  0  0  0  0  0  0  0  0
    0.0239   -4.1818    1.2920 C   0  0  1  0  0  0  0  0  0  0  0  0
   -0.2693   -4.6780    2.2171 H   0  0  0  0  0  0  0  0  0  0  0  0
   -0.3487   -2.7159    1.3382 C   0  0  0  0  0  0  0  0  0  0  0  0
   -1.4746   -2.2808    1.4498 O   0  0  0  0  0  0  0  0  0  0  0  0
   -0.6181   -4.8711    0.0863 C   0  0  0  0  0  0  0  0  0  0  0  0
    0.5132    1.8965   -0.0164 H   0  0  0  0  0  0  0  0  0  0  0  0
   -1.2516    1.8738   -0.2471 H   0  0  0  0  0  0  0  0  0  0  0  0
   -0.5688    1.8741    1.3967 H   0  0  0  0  0  0  0  0  0  0  0  0
   -0.2015   -1.6011   -1.0718 H   0  0  0  0  0  0  0  0  0  0  0  0
   -1.0371   -0.1555   -1.6886 H   0  0  0  0  0  0  0  0  0  0  0  0
    1.2468   -0.3360   -2.6373 H   0  0  0  0  0  0  0  0  0  0  0  0
    1.0940    1.1097   -1.6103 H   0  0  0  0  0  0  0  0  0  0  0  0
    2.2757   -1.5693   -0.7480 H   0  0  0  0  0  0  0  0  0  0  0  0
    3.2049   -0.1011   -1.1342 H   0  0  0  0  0  0  0  0  0  0  0  0
    2.8879   -0.3355    1.3139 H   0  0  0  0  0  0  0  0  0  0  0  0
    2.0524    1.1100    0.6971 H   0  0  0  0  0  0  0  0  0  0  0  0
    1.8660   -4.6380    0.2203 H   0  0  0  0  0  0  0  0  0  0  0  0
    2.0302   -4.6456    2.0057 H   0  0  0  0  0  0  0  0  0  0  0  0
   -0.2553   -5.8967    0.0184 H   0  0  0  0  0  0  0  0  0  0  0  0
   -1.7016   -4.8761    0.2050 H   0  0  0  0  0  0  0  0  0  0  0  0
   -0.3547   -4.3315   -0.8234 H   0  0  0  0  0  0  0  0  0  0  0  0
  1  2  1  0  0  0  0
  1 21  1  0  0  0  0
  1 22  1  0  0  0  0
  1 23  1  0  0  0  0
  2  3  1  1  0  0  0
  2  8  1  0  0  0  0
  2  4  1  0  0  0  0
  4  5  1  0  0  0  0
  4 24  1  0  0  0  0
  4 25  1  0  0  0  0
  5  6  1  0  0  0  0
  5 26  1  0  0  0  0
  5 27  1  0  0  0  0
  6  7  1  0  0  0  0
  6 28  1  0  0  0  0
  6 29  1  0  0  0  0
  7  8  1  0  0  0  0
  7 30  1  0  0  0  0
  7 31  1  0  0  0  0
  8  9  1  1  0  0  0
  8 12  1  0  0  0  0
  9 10  2  0  0  0  0
  9 11  1  0  0  0  0
 12 18  1  0  0  0  0
 12 13  1  0  0  0  0
 13 14  2  0  0  0  0
 13 15  1  0  0  0  0
 15 16  1  0  0  0  0
 15 32  1  0  0  0  0
 15 33  1  0  0  0  0
 16 17  1  1  0  0  0
 16 18  1  0  0  0  0
 16 20  1  0  0  0  0
 18 19  2  0  0  0  0
 20 34  1  0  0  0  0
 20 35  1  0  0  0  0
 20 36  1  0  0  0  0
M  END
$$$$
ZINC42308643
 OpenBabel01252620473D

 36 36  0  0  0  0  0  0  0  0999 V2000
   -0.0187    1.5258    0.0104 C   0  0  0  0  0  0  0  0  0  0  0  0
    0.0021   -0.0041    0.0020 C   0  0  0  0  0  0  0  0  0  0  0  0
    0.7421   -0.5109    1.2415 C   0  0  0  0  0  0  0  0  0  0  0  0
   -1.4333   -0.5336    0.0129 C   0  0  0  0  0  0  0  0  0  0  0  0
    0.6897   -0.4778   -1.2066 N   0  0  0  0  0  0  0  0  0  0  0  0
    0.6399   -1.9430   -1.3005 C   0  0  0  0  0  0  0  0  0  0  0  0
    1.2040   -2.3841   -2.6552 C   0  0  0  0  0  0  0  0  0  0  0  0
    2.5421   -1.7956   -2.8181 N   0  0  0  0  0  0  0  0  0  0  0  0
    2.6967   -0.3488   -2.6038 C   0  0  0  0  0  0  0  0  0  0  0  0
    2.0738    0.0123   -1.2511 C   0  0  0  0  0  0  0  0  0  0  0  0
    3.8400   -2.7370   -3.2324 S   0  0  0  0  0  0  0  0  0  0  0  0
    4.9687   -2.0467   -2.7142 O   0  0  0  0  0  0  0  0  0  0  0  0
    3.5086   -4.0374   -2.7649 O   0  0  0  0  0  0  0  0  0  0  0  0
    3.8722   -2.7145   -5.0460 C   0  0  0  0  0  0  0  0  0  0  0  0
    5.0267   -3.5487   -5.5383 C   0  0  0  0  0  0  0  0  0  0  0  0
    5.7598   -4.1067   -4.7397 O   0  0  0  0  0  0  0  0  0  0  0  0
    5.2276   -3.6656   -6.7351 O   0  0  0  0  0  1  0  0  0  0  0  0
    1.0039    1.9031    0.0027 H   0  0  0  0  0  0  0  0  0  0  0  0
   -0.5459    1.8868   -0.8726 H   0  0  0  0  0  0  0  0  0  0  0  0
   -0.5289    1.8773    0.9072 H   0  0  0  0  0  0  0  0  0  0  0  0
    0.2319   -0.1594    2.1383 H   0  0  0  0  0  0  0  0  0  0  0  0
    0.7568   -1.6008    1.2356 H   0  0  0  0  0  0  0  0  0  0  0  0
    1.7647   -0.1336    1.2338 H   0  0  0  0  0  0  0  0  0  0  0  0
   -1.9605   -0.1726   -0.8702 H   0  0  0  0  0  0  0  0  0  0  0  0
   -1.4185   -1.6235    0.0069 H   0  0  0  0  0  0  0  0  0  0  0  0
   -1.9435   -0.1821    0.9097 H   0  0  0  0  0  0  0  0  0  0  0  0
    1.2357   -2.3793   -0.4988 H   0  0  0  0  0  0  0  0  0  0  0  0
   -0.3933   -2.2783   -1.2101 H   0  0  0  0  0  0  0  0  0  0  0  0
    1.2760   -3.4713   -2.6853 H   0  0  0  0  0  0  0  0  0  0  0  0
    0.5507   -2.0354   -3.4550 H   0  0  0  0  0  0  0  0  0  0  0  0
    3.7556   -0.0903   -2.6000 H   0  0  0  0  0  0  0  0  0  0  0  0
    2.1869    0.1957   -3.3987 H   0  0  0  0  0  0  0  0  0  0  0  0
    2.0805    1.0949   -1.1249 H   0  0  0  0  0  0  0  0  0  0  0  0
    2.6497   -0.4513   -0.4502 H   0  0  0  0  0  0  0  0  0  0  0  0
    2.9382   -3.1235   -5.4311 H   0  0  0  0  0  0  0  0  0  0  0  0
    3.9907   -1.6885   -5.3946 H   0  0  0  0  0  0  0  0  0  0  0  0
  1  2  1  0  0  0  0
  1 18  1  0  0  0  0
  1 19  1  0  0  0  0
  1 20  1  0  0  0  0
  2  3  1  0  0  0  0
  2  4  1  0  0  0  0
  2  5  1  0  0  0  0
  3 21  1  0  0  0  0
  3 22  1  0  0  0  0
  3 23  1  0  0  0  0
  4 24  1  0  0  0  0
  4 25  1  0  0  0  0
  4 26  1  0  0  0  0
  5 10  1  0  0  0  0
  5  6  1  0  0  0  0
  6  7  1  0  0  0  0
  6 27  1  0  0  0  0
  6 28  1  0  0  0  0
  7  8  1  0  0  0  0
  7 29  1  0  0  0  0
  7 30  1  0  0  0  0
  8  9  1  0  0  0  0
  8 11  1  0  0  0  0
  9 10  1  0  0  0  0
  9 31  1  0  0  0  0
  9 32  1  0  0  0  0
 10 33  1  0  0  0  0
 10 34  1  0  0  0  0
 11 12  2  0  0  0  0
 11 13  2  0  0  0  0
 11 14  1  0  0  0  0
 14 15  1  0  0  0  0
 14 35  1  0  0  0  0
 14 36  1  0  0  0  0
 15 16  2  0  0  0  0
 15 17  1  0  0  0  0
M  END
$$$$
ZINC33473412
 OpenBabel01252620473D

 59 62  0  0  1  0  0  0  0  0999 V2000
   -1.9905   -2.5694   -2.7589 C   0  0  0  0  0  0  0  0  0  0  0  0
   -2.0522   -1.0452   -2.8770 C   0  0  0  0  0  0  0  0  0  0  0  0
   -1.2804   -0.4122   -1.7175 C   0  0  0  0  0  0  0  0  0  0  0  0
   -1.3380    1.0114   -1.8278 O   0  0  0  0  0  0  0  0  0  0  0  0
   -0.6977    1.7310   -0.8689 C   0  0  0  0  0  0  0  0  0  0  0  0
   -0.0275    1.0775    0.1576 C   0  0  0  0  0  0  0  0  0  0  0  0
    0.6310    1.8032    1.1336 C   0  0  0  0  0  0  0  0  0  0  0  0
    0.6229    3.1820    1.0980 C   0  0  0  0  0  0  0  0  0  0  0  0
   -0.0532    3.8497    0.0720 C   0  0  0  0  0  0  0  0  0  0  0  0
   -0.7181    3.1138   -0.9132 C   0  0  0  0  0  0  0  0  0  0  0  0
   -0.0644    5.3227    0.0294 C   0  0  0  0  0  0  0  0  0  0  0  0
    1.1192    6.0245    0.1255 C   0  0  0  0  0  0  0  0  0  0  0  0
    1.2796    7.5223    0.2459 C   0  0  2  0  0  0  0  0  0  0  0  0
    0.8499    8.0522   -0.6170 H   0  0  0  0  0  0  0  0  0  0  0  0
    2.7195    7.7858    0.3215 N   0  0  0  0  0  0  0  0  0  0  0  0
    3.3821    6.6193    0.2486 C   0  0  0  0  0  0  0  0  0  0  0  0
    4.5901    6.5023    0.2789 O   0  0  0  0  0  0  0  0  0  0  0  0
    2.4188    5.4916    0.1251 C   0  0  0  0  0  0  0  0  0  0  0  0
    2.7072    4.3119    0.0390 O   0  5  0  0  0  0  0  0  0  0  0  0
    3.3367    9.1083    0.4490 C   0  0  0  0  0  0  0  0  0  0  0  0
    3.5992    9.6850   -0.9436 C   0  0  0  0  0  0  0  0  0  0  0  0
    4.2438   11.0662   -0.8105 C   0  0  0  0  0  0  0  0  0  0  0  0
    4.4951   11.6184   -2.1439 N   0  0  0  0  0  0  0  0  0  0  0  0
    5.6351   11.4635   -2.8856 C   0  0  0  0  0  0  0  0  0  0  0  0
    5.4415   12.1277   -4.0410 C   0  0  0  0  0  0  0  0  0  0  0  0
    4.2203   12.6810   -4.0019 N   0  0  0  0  0  0  0  0  0  0  0  0
    3.6476   12.3802   -2.8685 C   0  0  0  0  0  0  0  0  0  0  0  0
    0.6017    8.0148    1.4986 C   0  0  0  0  0  0  0  0  0  0  0  0
    1.2188    7.8582    2.7256 C   0  0  0  0  0  0  0  0  0  0  0  0
    0.5990    8.3138    3.8741 C   0  0  0  0  0  0  0  0  0  0  0  0
   -0.6422    8.9174    3.7967 C   0  0  0  0  0  0  0  0  0  0  0  0
   -1.2614    9.0697    2.5702 C   0  0  0  0  0  0  0  0  0  0  0  0
   -0.6396    8.6180    1.4212 C   0  0  0  0  0  0  0  0  0  0  0  0
   -1.2331    5.9852   -0.1038 O   0  0  0  0  0  0  0  0  0  0  0  0
   -2.5454   -3.0245   -3.5925 H   0  0  0  0  0  0  0  0  0  0  0  0
   -2.4405   -2.8817   -1.8050 H   0  0  0  0  0  0  0  0  0  0  0  0
   -0.9412   -2.8977   -2.7943 H   0  0  0  0  0  0  0  0  0  0  0  0
   -1.6022   -0.7329   -3.8309 H   0  0  0  0  0  0  0  0  0  0  0  0
   -3.1015   -0.7168   -2.8417 H   0  0  0  0  0  0  0  0  0  0  0  0
   -1.7304   -0.7246   -0.7636 H   0  0  0  0  0  0  0  0  0  0  0  0
   -0.2311   -0.7406   -1.7528 H   0  0  0  0  0  0  0  0  0  0  0  0
   -0.0169   -0.0019    0.1912 H   0  0  0  0  0  0  0  0  0  0  0  0
    1.1538    1.2885    1.9262 H   0  0  0  0  0  0  0  0  0  0  0  0
    1.1379    3.7455    1.8620 H   0  0  0  0  0  0  0  0  0  0  0  0
   -1.2420    3.6228   -1.7087 H   0  0  0  0  0  0  0  0  0  0  0  0
    2.6600    9.7770    1.0012 H   0  0  0  0  0  0  0  0  0  0  0  0
    4.2881    9.0180    0.9938 H   0  0  0  0  0  0  0  0  0  0  0  0
    4.2759    9.0163   -1.4958 H   0  0  0  0  0  0  0  0  0  0  0  0
    2.6479    9.7753   -1.4884 H   0  0  0  0  0  0  0  0  0  0  0  0
    3.5672   11.7349   -0.2583 H   0  0  0  0  0  0  0  0  0  0  0  0
    5.1952   10.9759   -0.2658 H   0  0  0  0  0  0  0  0  0  0  0  0
    6.5190   10.9124   -2.6001 H   0  0  0  0  0  0  0  0  0  0  0  0
    6.1478   12.2056   -4.8543 H   0  0  0  0  0  0  0  0  0  0  0  0
    2.6593   12.6888   -2.5612 H   0  0  0  0  0  0  0  0  0  0  0  0
    2.1867    7.3829    2.7865 H   0  0  0  0  0  0  0  0  0  0  0  0
    1.0829    8.1951    4.8323 H   0  0  0  0  0  0  0  0  0  0  0  0
   -1.1280    9.2704    4.6944 H   0  0  0  0  0  0  0  0  0  0  0  0
   -2.2311    9.5413    2.5097 H   0  0  0  0  0  0  0  0  0  0  0  0
   -1.1236    8.7367    0.4630 H   0  0  0  0  0  0  0  0  0  0  0  0
  1  2  1  0  0  0  0
  1 35  1  0  0  0  0
  1 36  1  0  0  0  0
  1 37  1  0  0  0  0
  2  3  1  0  0  0  0
  2 38  1  0  0  0  0
  2 39  1  0  0  0  0
  3  4  1  0  0  0  0
  3 40  1  0  0  0  0
  3 41  1  0  0  0  0
  4  5  1  0  0  0  0
  5 10  2  0  0  0  0
  5  6  1  0  0  0  0
  6  7  2  0  0  0  0
  6 42  1  0  0  0  0
  7  8  1  0  0  0  0
  7 43  1  0  0  0  0
  8  9  2  0  0  0  0
  8 44  1  0  0  0  0
  9 10  1  0  0  0  0
  9 11  1  0  0  0  0
 10 45  1  0  0  0  0
 11 12  1  0  0  0  0
 11 34  2  0  0  0  0
 12 18  2  0  0  0  0
 12 13  1  0  0  0  0
 13 14  1  6  0  0  0
 13 15  1  0  0  0  0
 13 28  1  0  0  0  0
 15 16  1  0  0  0  0
 15 20  1  0  0  0  0
 16 17  2  0  0  0  0
 16 18  1  0  0  0  0
 18 19  1  0  0  0  0
 20 21  1  0  0  0  0
 20 46  1  0  0  0  0
 20 47  1  0  0  0  0
 21 22  1  0  0  0  0
 21 48  1  0  0  0  0
 21 49  1  0  0  0  0
 22 23  1  0  0  0  0
 22 50  1  0  0  0  0
 22 51  1  0  0  0  0
 23 27  1  0  0  0  0
 23 24  1  0  0  0  0
 24 25  2  0  0  0  0
 24 52  1  0  0  0  0
 25 26  1  0  0  0  0
 25 53  1  0  0  0  0
 26 27  2  0  0  0  0
 27 54  1  0  0  0  0
 28 33  2  0  0  0  0
 28 29  1  0  0  0  0
 29 30  2  0  0  0  0
 29 55  1  0  0  0  0
 30 31  1  0  0  0  0
 30 56  1  0  0  0  0
 31 32  2  0  0  0  0
 31 57  1  0  0  0  0
 32 33  1  0  0  0  0
 32 58  1  0  0  0  0
 33 59  1  0  0  0  0
M  CHG  1  19  -1
M  END
$$$$
ZINC59893526
 OpenBabel01252620473D

 33 35  0  0  0  0  0  0  0  0999 V2000
   -0.0167    1.3772    0.0096 C   0  0  0  0  0  0  0  0  0  0  0  0
    1.1828    2.0737    0.0019 C   0  0  0  0  0  0  0  0  0  0  0  0
    2.3689    1.3484   -0.0133 C   0  0  0  0  0  0  0  0  0  0  0  0
    2.3086   -0.0462   -0.0202 C   0  0  0  0  0  0  0  0  0  0  0  0
    1.1420   -0.6680   -0.0129 N   0  0  0  0  0  0  0  0  0  0  0  0
    0.0021   -0.0041    0.0020 C   0  0  0  0  0  0  0  0  0  0  0  0
    3.4926   -0.7921   -0.0355 N   0  0  0  0  0  0  0  0  0  0  0  0
    3.6584   -2.0541    0.4070 C   0  0  0  0  0  0  0  0  0  0  0  0
    4.9089   -2.3889    0.2168 N   0  0  0  0  0  0  0  0  0  0  0  0
    5.5690   -1.3744   -0.3411 C   0  0  0  0  0  0  0  0  0  0  0  0
    4.7434   -0.3766   -0.5207 N   0  0  0  0  0  0  0  0  0  0  0  0
    3.6026    2.0056   -0.0220 N   0  0  0  0  0  2  0  0  0  0  0  0
    3.6592    3.6606   -0.0142 S   0  0  0  0  0  0  0  0  0  0  0  0
    3.1105    4.0916   -1.2521 O   0  0  0  0  0  0  0  0  0  0  0  0
    3.1347    4.0790    1.2384 O   0  0  0  0  0  0  0  0  0  0  0  0
    5.3592    4.1238   -0.0285 C   0  0  0  0  0  0  0  0  0  0  0  0
    6.0367    4.2932    1.1662 C   0  0  0  0  0  0  0  0  0  0  0  0
    7.3673    4.6561    1.1628 C   0  0  0  0  0  0  0  0  0  0  0  0
    8.0312    4.8523   -0.0508 C   0  0  0  0  0  0  0  0  0  0  0  0
    7.3408    4.6789   -1.2531 C   0  0  0  0  0  0  0  0  0  0  0  0
    6.0118    4.3108   -1.2343 C   0  0  0  0  0  0  0  0  0  0  0  0
    9.4544    5.2411   -0.0627 C   0  0  0  0  0  0  0  0  0  0  0  0
   10.0558    5.3924    0.9913 O   0  0  0  0  0  0  0  0  0  0  0  0
   10.0327    5.4120   -1.1266 O   0  0  0  0  0  1  0  0  0  0  0  0
   -0.9562    1.9096    0.0259 H   0  0  0  0  0  0  0  0  0  0  0  0
    1.1951    3.1536    0.0072 H   0  0  0  0  0  0  0  0  0  0  0  0
   -0.9305   -0.5487    0.0080 H   0  0  0  0  0  0  0  0  0  0  0  0
    2.8933   -2.6795    0.8428 H   0  0  0  0  0  0  0  0  0  0  0  0
    6.6159   -1.3776   -0.6062 H   0  0  0  0  0  0  0  0  0  0  0  0
    5.5222    4.1413    2.1036 H   0  0  0  0  0  0  0  0  0  0  0  0
    7.8946    4.7887    2.0959 H   0  0  0  0  0  0  0  0  0  0  0  0
    7.8478    4.8289   -2.1949 H   0  0  0  0  0  0  0  0  0  0  0  0
    5.4780    4.1722   -2.1629 H   0  0  0  0  0  0  0  0  0  0  0  0
  1  6  2  0  0  0  0
  1  2  1  0  0  0  0
  1 25  1  0  0  0  0
  2  3  2  0  0  0  0
  2 26  1  0  0  0  0
  3  4  1  0  0  0  0
  3 12  1  0  0  0  0
  4  5  2  0  0  0  0
  4  7  1  0  0  0  0
  5  6  1  0  0  0  0
  6 27  1  0  0  0  0
  7 11  1  0  0  0  0
  7  8  1  0  0  0  0
  8  9  2  0  0  0  0
  8 28  1  0  0  0  0
  9 10  1  0  0  0  0
 10 11  2  0  0  0  0
 10 29  1  0  0  0  0
 12 13  1  0  0  0  0
 13 14  2  0  0  0  0
 13 15  2  0  0  0  0
 13 16  1  0  0  0  0
 16 21  2  0  0  0  0
 16 17  1  0  0  0  0
 17 18  2  0  0  0  0
 17 30  1  0  0  0  0
 18 19  1  0  0  0  0
 18 31  1  0  0  0  0
 19 20  2  0  0  0  0
 19 22  1  0  0  0  0
 20 21  1  0  0  0  0
 20 32  1  0  0  0  0
 21 33  1  0  0  0  0
 22 23  2  0  0  0  0
 22 24  1  0  0  0  0
M  END
$$$$
ZINC20220960
 OpenBabel01252620473D

 47 50  0  0  1  0  0  0  0  0999 V2000
    6.1042   -5.5657    1.1431 C   0  0  0  0  0  0  0  0  0  0  0  0
    6.7833   -4.2840    1.2088 O   0  0  0  0  0  0  0  0  0  0  0  0
    6.0302   -3.1814    1.0174 C   0  0  0  0  0  0  0  0  0  0  0  0
    4.8379   -3.2892    0.8014 O   0  0  0  0  0  0  0  0  0  0  0  0
    6.6477   -1.8551    1.0695 C   0  0  0  0  0  0  0  0  0  0  0  0
    8.0591   -1.6855    1.3236 C   0  0  0  0  0  0  0  0  0  0  0  0
    8.5311   -0.4267    1.3524 C   0  0  0  0  0  0  0  0  0  0  0  0
    7.0853    0.5615    1.0299 S   0  0  0  0  0  0  0  0  0  0  0  0
    5.9038   -0.6951    0.8771 C   0  0  0  0  0  0  0  0  0  0  0  0
    4.5484   -0.5750    0.6198 N   0  0  0  0  0  0  0  0  0  0  0  0
    3.9982    0.6450    0.4605 C   0  0  0  0  0  0  0  0  0  0  0  0
    4.6926    1.6412    0.5429 O   0  0  0  0  0  0  0  0  0  0  0  0
    2.5636    0.7721    0.1882 C   0  0  0  0  0  0  0  0  0  0  0  0
    1.7073   -0.3852    0.0829 C   0  0  0  0  0  0  0  0  0  0  0  0
    0.4047   -0.1645   -0.1698 C   0  0  0  0  0  0  0  0  0  0  0  0
    0.3018    1.6103   -0.2716 S   0  0  0  0  0  0  0  0  0  0  0  0
    1.9607    2.0133    0.0182 C   0  0  0  0  0  0  0  0  0  0  0  0
    2.5459    3.2692    0.0682 N   0  0  0  0  0  0  0  0  0  0  0  0
    1.7939    4.3712   -0.1230 C   0  0  0  0  0  0  0  0  0  0  0  0
    0.6052    4.2642   -0.3388 O   0  0  0  0  0  0  0  0  0  0  0  0
    2.4300    5.7363   -0.0687 C   0  0  2  0  0  0  0  0  0  0  0  0
    3.5101    5.5342   -0.1198 H   0  0  0  0  0  0  0  0  0  0  0  0
    1.9781    6.5055    1.2088 C   0  0  2  0  0  0  0  0  0  0  0  0
    2.5423    6.2848    2.1269 H   0  0  0  0  0  0  0  0  0  0  0  0
    0.4388    6.2814    1.3016 C   0  0  0  0  0  0  0  0  0  0  0  0
   -0.1070    7.1701    0.1550 C   0  0  0  0  0  0  0  0  0  0  0  0
    1.1893    7.7897   -0.4481 C   0  0  2  0  0  0  0  0  0  0  0  0
    1.0339    8.7160   -1.0206 H   0  0  0  0  0  0  0  0  0  0  0  0
    1.9006    6.6348   -1.2154 C   0  0  2  0  0  0  0  0  0  0  0  0
    2.6805    6.9577   -1.9208 H   0  0  0  0  0  0  0  0  0  0  0  0
    0.8998    5.8887   -2.0597 C   0  0  0  0  0  0  0  0  0  0  0  0
   -0.1664    6.3937   -2.3206 O   0  0  0  0  0  0  0  0  0  0  0  0
    1.1928    4.6630   -2.5218 O   0  0  0  0  0  1  0  0  0  0  0  0
    2.0544    7.8944    0.7481 O   0  0  0  0  0  0  0  0  0  0  0  0
    6.8297   -6.3743    1.3156 H   0  0  0  0  0  0  0  0  0  0  0  0
    5.6478   -5.6883    0.1498 H   0  0  0  0  0  0  0  0  0  0  0  0
    5.3207   -5.6054    1.9141 H   0  0  0  0  0  0  0  0  0  0  0  0
    8.7082   -2.5337    1.4835 H   0  0  0  0  0  0  0  0  0  0  0  0
    9.5444   -0.0951    1.5245 H   0  0  0  0  0  0  0  0  0  0  0  0
    3.9208   -1.4753    0.5454 H   0  0  0  0  0  0  0  0  0  0  0  0
    2.0961   -1.3858    0.2014 H   0  0  0  0  0  0  0  0  0  0  0  0
   -0.3880   -0.8892   -0.2829 H   0  0  0  0  0  0  0  0  0  0  0  0
    3.6240    3.3662    0.2639 H   0  0  0  0  0  0  0  0  0  0  0  0
    0.2141    5.2145    1.1555 H   0  0  0  0  0  0  0  0  0  0  0  0
    0.0810    6.5992    2.2921 H   0  0  0  0  0  0  0  0  0  0  0  0
   -0.6534    6.5440   -0.5658 H   0  0  0  0  0  0  0  0  0  0  0  0
   -0.7865    7.9287    0.5707 H   0  0  0  0  0  0  0  0  0  0  0  0
  1  2  1  0  0  0  0
  1 35  1  0  0  0  0
  1 36  1  0  0  0  0
  1 37  1  0  0  0  0
  2  3  1  0  0  0  0
  3  4  2  0  0  0  0
  3  5  1  0  0  0  0
  5  9  2  0  0  0  0
  5  6  1  0  0  0  0
  6  7  2  0  0  0  0
  6 38  1  0  0  0  0
  7  8  1  0  0  0  0
  7 39  1  0  0  0  0
  8  9  1  0  0  0  0
  9 10  1  0  0  0  0
 10 11  1  0  0  0  0
 10 40  1  0  0  0  0
 11 12  2  0  0  0  0
 11 13  1  0  0  0  0
 13 17  2  0  0  0  0
 13 14  1  0  0  0  0
 14 15  2  0  0  0  0
 14 41  1  0  0  0  0
 15 16  1  0  0  0  0
 15 42  1  0  0  0  0
 16 17  1  0  0  0  0
 17 18  1  0  0  0  0
 18 19  1  0  0  0  0
 18 43  1  0  0  0  0
 19 20  2  0  0  0  0
 19 21  1  0  0  0  0
 21 22  1  6  0  0  0
 21 29  1  0  0  0  0
 21 23  1  0  0  0  0
 23 24  1  1  0  0  0
 23 34  1  0  0  0  0
 23 25  1  0  0  0  0
 25 26  1  0  0  0  0
 25 44  1  0  0  0  0
 25 45  1  0  0  0  0
 26 27  1  0  0  0  0
 26 46  1  0  0  0  0
 26 47  1  0  0  0  0
 27 28  1  6  0  0  0
 27 29  1  0  0  0  0
 27 34  1  0  0  0  0
 29 30  1  6  0  0  0
 29 31  1  0  0  0  0
 31 32  2  0  0  0  0
 31 33  1  0  0  0  0
M  END
$$$$
ZINC54262797
 OpenBabel01252620473D

 43 44  0  0  0  0  0  0  0  0999 V2000
   -0.0187    1.5258    0.0104 C   0  0  0  0  0  0  0  0  0  0  0  0
    0.0021   -0.0041    0.0020 C   0  0  0  0  0  0  0  0  0  0  0  0
   -1.4338   -0.5349    0.0184 C   0  0  0  0  0  0  0  0  0  0  0  0
   -2.0720   -0.1317    1.2330 O   0  0  0  0  0  0  0  0  0  0  0  0
   -1.4064   -0.5902    2.4129 C   0  0  0  0  0  0  0  0  0  0  0  0
    0.0298   -0.0599    2.4208 C   0  0  0  0  0  0  0  0  0  0  0  0
    0.7130   -0.4919    1.1928 N   0  0  0  0  0  0  0  0  0  0  0  0
    2.1142   -0.0509    1.1869 C   0  0  0  0  0  0  0  0  0  0  0  0
    2.8697   -0.7634    2.2790 C   0  0  0  0  0  0  0  0  0  0  0  0
    2.2972   -1.5601    2.9920 O   0  0  0  0  0  0  0  0  0  0  0  0
    4.1815   -0.5152    2.4633 N   0  0  0  0  0  0  0  0  0  0  0  0
    4.8873    0.4518    1.6116 C   0  0  0  0  0  0  0  0  0  0  0  0
    6.1201   -0.2294    1.0092 C   0  0  0  0  0  0  0  0  0  0  0  0
    6.9746   -0.8167    2.1348 C   0  0  0  0  0  0  0  0  0  0  0  0
    6.1651   -1.8688    2.8963 C   0  0  0  0  0  0  0  0  0  0  0  0
    4.9315   -1.2020    3.5238 C   0  0  0  0  0  0  0  0  0  0  0  0
    8.2057   -1.4581    1.5483 C   0  0  0  0  0  0  0  0  0  0  0  0
    9.2821   -1.3362    2.1078 O   0  0  0  0  0  0  0  0  0  0  0  0
    8.1253   -2.0991    0.5142 O   0  0  0  0  0  1  0  0  0  0  0  0
    0.7162   -0.4984   -1.2576 C   0  0  0  0  0  0  0  0  0  0  0  0
    1.0039    1.9031    0.0027 H   0  0  0  0  0  0  0  0  0  0  0  0
   -0.5459    1.8868   -0.8726 H   0  0  0  0  0  0  0  0  0  0  0  0
   -0.5289    1.8773    0.9072 H   0  0  0  0  0  0  0  0  0  0  0  0
   -1.9814   -0.1295   -0.8325 H   0  0  0  0  0  0  0  0  0  0  0  0
   -1.4203   -1.6232   -0.0418 H   0  0  0  0  0  0  0  0  0  0  0  0
   -1.9341   -0.2248    3.2938 H   0  0  0  0  0  0  0  0  0  0  0  0
   -1.3920   -1.6801    2.4224 H   0  0  0  0  0  0  0  0  0  0  0  0
    0.0155    1.0291    2.4654 H   0  0  0  0  0  0  0  0  0  0  0  0
    0.5583   -0.4535    3.2890 H   0  0  0  0  0  0  0  0  0  0  0  0
    2.5644   -0.2840    0.2220 H   0  0  0  0  0  0  0  0  0  0  0  0
    2.1572    1.0248    1.3576 H   0  0  0  0  0  0  0  0  0  0  0  0
    4.2263    0.7848    0.8114 H   0  0  0  0  0  0  0  0  0  0  0  0
    5.1989    1.3074    2.2108 H   0  0  0  0  0  0  0  0  0  0  0  0
    5.8031   -1.0281    0.3385 H   0  0  0  0  0  0  0  0  0  0  0  0
    6.7050    0.5029    0.4527 H   0  0  0  0  0  0  0  0  0  0  0  0
    7.2707   -0.0212    2.8188 H   0  0  0  0  0  0  0  0  0  0  0  0
    5.8477   -2.6520    2.2079 H   0  0  0  0  0  0  0  0  0  0  0  0
    6.7820   -2.3032    3.6830 H   0  0  0  0  0  0  0  0  0  0  0  0
    5.2466   -0.4785    4.2757 H   0  0  0  0  0  0  0  0  0  0  0  0
    4.2996   -1.9605    3.9857 H   0  0  0  0  0  0  0  0  0  0  0  0
    1.7389   -0.1214   -1.2671 H   0  0  0  0  0  0  0  0  0  0  0  0
    0.7306   -1.5883   -1.2630 H   0  0  0  0  0  0  0  0  0  0  0  0
    0.1877   -0.1377   -2.1401 H   0  0  0  0  0  0  0  0  0  0  0  0
  1  2  1  0  0  0  0
  1 21  1  0  0  0  0
  1 22  1  0  0  0  0
  1 23  1  0  0  0  0
  2  7  1  0  0  0  0
  2  3  1  0  0  0  0
  2 20  1  0  0  0  0
  3  4  1  0  0  0  0
  3 24  1  0  0  0  0
  3 25  1  0  0  0  0
  4  5  1  0  0  0  0
  5  6  1  0  0  0  0
  5 26  1  0  0  0  0
  5 27  1  0  0  0  0
  6  7  1  0  0  0  0
  6 28  1  0  0  0  0
  6 29  1  0  0  0  0
  7  8  1  0  0  0  0
  8  9  1  0  0  0  0
  8 30  1  0  0  0  0
  8 31  1  0  0  0  0
  9 10  2  0  0  0  0
  9 11  1  0  0  0  0
 11 16  1  0  0  0  0
 11 12  1  0  0  0  0
 12 13  1  0  0  0  0
 12 32  1  0  0  0  0
 12 33  1  0  0  0  0
 13 14  1  0  0  0  0
 13 34  1  0  0  0  0
 13 35  1  0  0  0  0
 14 15  1  0  0  0  0
 14 17  1  0  0  0  0
 14 36  1  0  0  0  0
 15 16  1  0  0  0  0
 15 37  1  0  0  0  0
 15 38  1  0  0  0  0
 16 39  1  0  0  0  0
 16 40  1  0  0  0  0
 17 18  2  0  0  0  0
 17 19  1  0  0  0  0
 20 41  1  0  0  0  0
 20 42  1  0  0  0  0
 20 43  1  0  0  0  0
M  END
$$$$
ZINC39647030
 OpenBabel01252620473D

 45 48  0  0  1  0  0  0  0  0999 V2000
   -0.0166    1.3752    0.0096 C   0  0  0  0  0  0  0  0  0  0  0  0
    1.1679    2.0951    0.0022 C   0  0  0  0  0  0  0  0  0  0  0  0
    2.3859    1.4429   -0.0079 C   0  0  0  0  0  0  0  0  0  0  0  0
    2.4223    0.0587   -0.0132 C   0  0  0  0  0  0  0  0  0  0  0  0
    1.2231   -0.6745   -0.0144 C   0  0  0  0  0  0  0  0  0  0  0  0
    0.0021   -0.0041    0.0020 C   0  0  0  0  0  0  0  0  0  0  0  0
    1.2956   -2.1460   -0.0477 C   0  0  0  0  0  0  0  0  0  0  0  0
    0.2920   -2.8134    0.1135 O   0  0  0  0  0  0  0  0  0  0  0  0
    2.4843   -2.7457   -0.2590 N   0  0  0  0  0  0  0  0  0  0  0  0
    3.6681   -1.9704   -0.6308 C   0  0  2  0  0  0  0  0  0  0  0  0
    4.5628   -2.4953   -0.2961 H   0  0  0  0  0  0  0  0  0  0  0  0
    3.6232   -0.6421   -0.0093 N   0  0  0  0  0  0  0  0  0  0  0  0
    3.7211   -1.7829   -2.4343 S   0  0  0  0  0  0  0  0  0  0  0  0
    2.1798   -0.9124   -2.8305 C   0  0  0  0  0  0  0  0  0  0  0  0
    2.0968   -0.6900   -4.3187 C   0  0  0  0  0  0  0  0  0  0  0  0
    1.0093   -0.0436   -4.8140 N   0  0  0  0  0  0  0  0  0  0  0  0
    0.3140    0.2597   -4.2095 H   0  0  0  0  0  0  0  0  0  0  0  0
    0.8874    0.1813   -6.1429 C   0  0  0  0  0  0  0  0  0  0  0  0
   -0.0811    0.7593   -6.5999 O   0  0  0  0  0  0  0  0  0  0  0  0
    1.9730   -0.3004   -7.0146 C   0  0  0  0  0  0  0  0  0  0  0  0
    1.9413   -0.1173   -8.3958 C   0  0  0  0  0  0  0  0  0  0  0  0
    2.9695   -0.5795   -9.1670 C   0  0  0  0  0  0  0  0  0  0  0  0
    4.0590   -1.2378   -8.5817 C   0  0  0  0  0  0  0  0  0  0  0  0
    4.1094   -1.4309   -7.2055 C   0  0  0  0  0  0  0  0  0  0  0  0
    3.0634   -0.9616   -6.4083 C   0  0  0  0  0  0  0  0  0  0  0  0
    3.0706   -1.1212   -5.0610 N   0  0  0  0  0  0  0  0  0  0  0  0
    5.1622   -1.7310   -9.4330 C   0  0  0  0  0  0  0  0  0  0  0  0
    5.1220   -1.5638  -10.6434 O   0  0  0  0  0  0  0  0  0  0  0  0
    6.1149   -2.3060   -8.9266 O   0  0  0  0  0  1  0  0  0  0  0  0
    2.5928   -4.1994   -0.1134 C   0  0  0  0  0  0  0  0  0  0  0  0
    2.3042   -4.8597   -1.4369 C   0  0  0  0  0  0  0  0  0  0  0  0
    2.0330   -4.1791   -2.4115 O   0  0  0  0  0  0  0  0  0  0  0  0
    2.3418   -6.0746   -1.5332 O   0  0  0  0  0  1  0  0  0  0  0  0
   -0.9614    1.8982    0.0260 H   0  0  0  0  0  0  0  0  0  0  0  0
    1.1385    3.1747    0.0039 H   0  0  0  0  0  0  0  0  0  0  0  0
    3.3050    2.0099   -0.0120 H   0  0  0  0  0  0  0  0  0  0  0  0
   -0.9236   -0.5604    0.0091 H   0  0  0  0  0  0  0  0  0  0  0  0
    4.4168   -0.2599    0.3968 H   0  0  0  0  0  0  0  0  0  0  0  0
    1.3298   -1.5120   -2.5048 H   0  0  0  0  0  0  0  0  0  0  0  0
    2.1636    0.0494   -2.3179 H   0  0  0  0  0  0  0  0  0  0  0  0
    1.1053    0.3887   -8.8555 H   0  0  0  0  0  0  0  0  0  0  0  0
    2.9422   -0.4366  -10.2371 H   0  0  0  0  0  0  0  0  0  0  0  0
    4.9502   -1.9393   -6.7572 H   0  0  0  0  0  0  0  0  0  0  0  0
    3.6013   -4.4579    0.2094 H   0  0  0  0  0  0  0  0  0  0  0  0
    1.8738   -4.5448    0.6294 H   0  0  0  0  0  0  0  0  0  0  0  0
  1  6  2  0  0  0  0
  1  2  1  0  0  0  0
  1 34  1  0  0  0  0
  2  3  2  0  0  0  0
  2 35  1  0  0  0  0
  3  4  1  0  0  0  0
  3 36  1  0  0  0  0
  4 12  1  0  0  0  0
  4  5  2  0  0  0  0
  5  6  1  0  0  0  0
  5  7  1  0  0  0  0
  6 37  1  0  0  0  0
  7  8  2  0  0  0  0
  7  9  1  0  0  0  0
  9 10  1  0  0  0  0
  9 30  1  0  0  0  0
 10 11  1  1  0  0  0
 10 12  1  0  0  0  0
 10 13  1  0  0  0  0
 12 38  1  0  0  0  0
 13 14  1  0  0  0  0
 14 15  1  0  0  0  0
 14 39  1  0  0  0  0
 14 40  1  0  0  0  0
 15 26  2  0  0  0  0
 15 16  1  0  0  0  0
 16 17  1  0  0  0  0
 16 18  1  0  0  0  0
 18 19  2  0  0  0  0
 18 20  1  0  0  0  0
 20 25  2  0  0  0  0
 20 21  1  0  0  0  0
 21 22  2  0  0  0  0
 21 41  1  0  0  0  0
 22 23  1  0  0  0  0
 22 42  1  0  0  0  0
 23 24  2  0  0  0  0
 23 27  1  0  0  0  0
 24 25  1  0  0  0  0
 24 43  1  0  0  0  0
 25 26  1  0  0  0  0
 27 28  2  0  0  0  0
 27 29  1  0  0  0  0
 30 31  1  0  0  0  0
 30 44  1  0  0  0  0
 30 45  1  0  0  0  0
 31 32  2  0  0  0  0
 31 33  1  0  0  0  0
M  END
$$$$
ZINC33359468
 OpenBabel01252620473D

 46 47  0  0  0  0  0  0  0  0999 V2000
   -0.0184    1.5028    0.0103 C   0  0  0  0  0  0  0  0  0  0  0  0
    0.0021   -0.0041    0.0020 C   0  0  0  0  0  0  0  0  0  0  0  0
    0.0086   -0.7938   -1.0571 C   0  0  0  0  0  0  0  0  0  0  0  0
    0.0288   -2.1263   -0.7320 N   0  0  0  0  0  0  0  0  0  0  0  0
    0.0398   -3.1859   -1.5475 C   0  0  0  0  0  3  0  0  0  0  0  0
    0.0596   -4.4695   -1.0530 C   0  0  0  0  0  0  0  0  0  0  0  0
    0.0684   -4.6747    0.3197 C   0  0  0  0  0  0  0  0  0  0  0  0
    0.0567   -3.5602    1.1467 C   0  0  0  0  0  0  0  0  0  0  0  0
    0.0370   -2.3038    0.5844 C   0  0  0  0  0  0  0  0  0  0  0  0
    0.0260   -0.9231    1.2069 C   0  0  0  0  0  0  0  0  0  0  0  0
    1.2895   -0.6921    2.0382 C   0  0  0  0  0  0  0  0  0  0  0  0
   -1.2282   -0.7277    2.0611 C   0  0  0  0  0  0  0  0  0  0  0  0
    0.0932   -6.3029    0.9927 S   0  0  0  0  0  0  0  0  0  0  0  0
   -0.5980   -6.2420    2.2713 O   0  0  0  0  0  0  0  0  0  0  0  0
   -0.5956   -7.1631    0.0431 O   0  0  0  0  0  0  0  0  0  0  0  0
    1.4910   -6.6746    1.1479 O   0  0  0  0  0  1  0  0  0  0  0  0
   -0.0052   -0.2837   -2.4750 C   0  0  0  0  0  0  0  0  0  0  0  0
    1.4285   -0.2087   -3.0040 C   0  0  0  0  0  0  0  0  0  0  0  0
    1.4145    0.3092   -4.4437 C   0  0  0  0  0  0  0  0  0  0  0  0
    2.8481    0.3843   -4.9727 C   0  0  0  0  0  0  0  0  0  0  0  0
    2.8341    0.9022   -6.4123 C   0  0  0  0  0  0  0  0  0  0  0  0
    4.2462    0.9761   -6.9333 C   0  0  0  0  0  0  0  0  0  0  0  0
    5.1775    0.6452   -6.2194 O   0  0  0  0  0  0  0  0  0  0  0  0
    4.4574    1.3667   -8.0688 O   0  0  0  0  0  1  0  0  0  0  0  0
    1.0042    1.8801    0.0026 H   0  0  0  0  0  0  0  0  0  0  0  0
   -0.5455    1.8639   -0.8728 H   0  0  0  0  0  0  0  0  0  0  0  0
   -0.5286    1.8543    0.9071 H   0  0  0  0  0  0  0  0  0  0  0  0
    0.0326   -3.0309   -2.6163 H   0  0  0  0  0  0  0  0  0  0  0  0
    0.0679   -5.3121   -1.7285 H   0  0  0  0  0  0  0  0  0  0  0  0
    0.0627   -3.6774    2.2203 H   0  0  0  0  0  0  0  0  0  0  0  0
    1.3136    0.3416    2.3831 H   0  0  0  0  0  0  0  0  0  0  0  0
    1.2863   -1.3621    2.8980 H   0  0  0  0  0  0  0  0  0  0  0  0
    2.1689   -0.8913    1.4257 H   0  0  0  0  0  0  0  0  0  0  0  0
   -2.1126   -0.9518    1.4646 H   0  0  0  0  0  0  0  0  0  0  0  0
   -1.1905   -1.3970    2.9205 H   0  0  0  0  0  0  0  0  0  0  0  0
   -1.2752    0.3050    2.4066 H   0  0  0  0  0  0  0  0  0  0  0  0
   -0.5878   -0.9612   -3.0993 H   0  0  0  0  0  0  0  0  0  0  0  0
   -0.4540    0.7094   -2.4996 H   0  0  0  0  0  0  0  0  0  0  0  0
    2.0111    0.4689   -2.3798 H   0  0  0  0  0  0  0  0  0  0  0  0
    1.8772   -1.2017   -2.9795 H   0  0  0  0  0  0  0  0  0  0  0  0
    0.8319   -0.3683   -5.0679 H   0  0  0  0  0  0  0  0  0  0  0  0
    0.9657    1.3023   -4.4682 H   0  0  0  0  0  0  0  0  0  0  0  0
    3.4307    1.0618   -4.3484 H   0  0  0  0  0  0  0  0  0  0  0  0
    3.2969   -0.6088   -4.9481 H   0  0  0  0  0  0  0  0  0  0  0  0
    2.2515    0.2246   -7.0365 H   0  0  0  0  0  0  0  0  0  0  0  0
    2.3854    1.8952   -6.4368 H   0  0  0  0  0  0  0  0  0  0  0  0
  1  2  1  0  0  0  0
  1 25  1  0  0  0  0
  1 26  1  0  0  0  0
  1 27  1  0  0  0  0
  2 10  1  0  0  0  0
  2  3  2  0  0  0  0
  3  4  1  0  0  0  0
  3 17  1  0  0  0  0
  4  9  1  0  0  0  0
  4  5  1  0  0  0  0
  5  6  1  0  0  0  0
  5 28  1  0  0  0  0
  6  7  2  0  0  0  0
  6 29  1  0  0  0  0
  7  8  1  0  0  0  0
  7 13  1  0  0  0  0
  8  9  2  0  0  0  0
  8 30  1  0  0  0  0
  9 10  1  0  0  0  0
 10 11  1  0  0  0  0
 10 12  1  0  0  0  0
 11 31  1  0  0  0  0
 11 32  1  0  0  0  0
 11 33  1  0  0  0  0
 12 34  1  0  0  0  0
 12 35  1  0  0  0  0
 12 36  1  0  0  0  0
 13 14  2  0  0  0  0
 13 15  2  0  0  0  0
 13 16  1  0  0  0  0
 17 18  1  0  0  0  0
 17 37  1  0  0  0  0
 17 38  1  0  0  0  0
 18 19  1  0  0  0  0
 18 39  1  0  0  0  0
 18 40  1  0  0  0  0
 19 20  1  0  0  0  0
 19 41  1  0  0  0  0
 19 42  1  0  0  0  0
 20 21  1  0  0  0  0
 20 43  1  0  0  0  0
 20 44  1  0  0  0  0
 21 22  1  0  0  0  0
 21 45  1  0  0  0  0
 21 46  1  0  0  0  0
 22 23  2  0  0  0  0
 22 24  1  0  0  0  0
M  END
$$$$
ZINC62833247
 OpenBabel01252620473D

 29 30  0  0  0  0  0  0  0  0999 V2000
   -0.0169    1.3941    0.0097 C   0  0  0  0  0  0  0  0  0  0  0  0
    1.1662    2.1000    0.0022 C   0  0  0  0  0  0  0  0  0  0  0  0
    2.3809    1.4266   -0.0130 C   0  0  0  0  0  0  0  0  0  0  0  0
    2.4084    0.0298   -0.0207 C   0  0  0  0  0  0  0  0  0  0  0  0
    1.2243   -0.6841   -0.0132 C   0  0  0  0  0  0  0  0  0  0  0  0
    0.0021   -0.0041    0.0020 C   0  0  0  0  0  0  0  0  0  0  0  0
   -1.2626   -0.7593    0.0105 C   0  0  0  0  0  0  0  0  0  0  0  0
   -2.3308   -0.1634    0.0242 O   0  0  0  0  0  0  0  0  0  0  0  0
   -1.2446   -1.9825    0.0037 O   0  0  0  0  0  1  0  0  0  0  0  0
    3.6329   -0.6460   -0.0364 N   0  0  0  0  0  0  0  0  0  0  0  0
    3.5789    2.1483   -0.0210 N   0  0  0  0  0  0  0  0  0  0  0  0
    4.1166    2.4914   -1.2011 C   0  0  0  0  0  0  0  0  0  0  0  0
    3.5599    2.1615   -2.2262 O   0  0  0  0  0  0  0  0  0  0  0  0
    5.3980    3.2787   -1.2772 C   0  0  0  0  0  0  0  0  0  0  0  0
    6.2549    2.9651   -0.0461 C   0  0  0  0  0  0  0  0  0  0  0  0
    5.4281    3.2563    1.2109 C   0  0  0  0  0  0  0  0  0  0  0  0
    4.1423    2.4749    1.1518 C   0  0  0  0  0  0  0  0  0  0  0  0
    3.6080    2.1307    2.1841 O   0  0  0  0  0  0  0  0  0  0  0  0
   -0.9595    1.9209    0.0260 H   0  0  0  0  0  0  0  0  0  0  0  0
    1.1491    3.1798    0.0078 H   0  0  0  0  0  0  0  0  0  0  0  0
    1.2430   -1.7639   -0.0195 H   0  0  0  0  0  0  0  0  0  0  0  0
    4.4633   -0.1449   -0.0420 H   0  0  0  0  0  0  0  0  0  0  0  0
    3.6515   -1.6158   -0.0418 H   0  0  0  0  0  0  0  0  0  0  0  0
    5.9424    3.0020   -2.1801 H   0  0  0  0  0  0  0  0  0  0  0  0
    5.1699    4.3443   -1.3005 H   0  0  0  0  0  0  0  0  0  0  0  0
    6.5434    1.9141   -0.0590 H   0  0  0  0  0  0  0  0  0  0  0  0
    7.1464    3.5923   -0.0512 H   0  0  0  0  0  0  0  0  0  0  0  0
    5.9942    2.9636    2.0952 H   0  0  0  0  0  0  0  0  0  0  0  0
    5.2009    4.3213    1.2588 H   0  0  0  0  0  0  0  0  0  0  0  0
  1  6  2  0  0  0  0
  1  2  1  0  0  0  0
  1 19  1  0  0  0  0
  2  3  2  0  0  0  0
  2 20  1  0  0  0  0
  3  4  1  0  0  0  0
  3 11  1  0  0  0  0
  4  5  2  0  0  0  0
  4 10  1  0  0  0  0
  5  6  1  0  0  0  0
  5 21  1  0  0  0  0
  6  7  1  0  0  0  0
  7  8  2  0  0  0  0
  7  9  1  0  0  0  0
 10 22  1  0  0  0  0
 10 23  1  0  0  0  0
 11 17  1  0  0  0  0
 11 12  1  0  0  0  0
 12 13  2  0  0  0  0
 12 14  1  0  0  0  0
 14 15  1  0  0  0  0
 14 24  1  0  0  0  0
 14 25  1  0  0  0  0
 15 16  1  0  0  0  0
 15 26  1  0  0  0  0
 15 27  1  0  0  0  0
 16 17  1  0  0  0  0
 16 28  1  0  0  0  0
 16 29  1  0  0  0  0
 17 18  2  0  0  0  0
M  END
$$$$
ZINC13185129
 OpenBabel01252620473D

 39 40  0  0  0  0  0  0  0  0999 V2000
    0.0395   -2.7731   -0.0261 C   0  0  0  0  0  0  0  0  0  0  0  0
    1.2210   -2.0611   -0.1259 C   0  0  0  0  0  0  0  0  0  0  0  0
    1.2021   -0.6787   -0.1112 C   0  0  0  0  0  0  0  0  0  0  0  0
    0.0032   -0.0042    0.0139 C   0  0  0  0  0  0  0  0  0  0  0  0
   -1.1851   -0.7161    0.1143 C   0  0  0  0  0  0  0  0  0  0  0  0
   -1.1630   -2.1051    0.0939 C   0  0  0  0  0  0  0  0  0  0  0  0
   -2.3997   -0.0371    0.2351 N   0  0  0  0  0  0  0  0  0  0  0  0
   -3.6380   -0.7860    0.4634 C   0  0  0  0  0  0  0  0  0  0  0  0
   -4.8136    0.1887    0.5571 C   0  0  0  0  0  0  0  0  0  0  0  0
   -6.0519   -0.5602    0.7854 N   0  0  0  0  0  0  0  0  0  0  0  0
   -7.4153    0.2297    1.2947 S   0  0  0  0  0  0  0  0  0  0  0  0
   -8.4385   -0.7510    1.3970 O   0  0  0  0  0  0  0  0  0  0  0  0
   -7.0270    1.0429    2.3934 O   0  0  0  0  0  0  0  0  0  0  0  0
   -7.8959    1.3261    0.0018 C   0  0  0  0  0  0  0  0  0  0  0  0
   -7.4082    2.6218   -0.0211 C   0  0  0  0  0  0  0  0  0  0  0  0
   -7.7744    3.4881   -1.0338 C   0  0  0  0  0  0  0  0  0  0  0  0
   -8.6412    3.0684   -2.0266 C   0  0  0  0  0  0  0  0  0  0  0  0
   -9.1415    1.7623   -2.0053 C   0  0  0  0  0  0  0  0  0  0  0  0
   -8.7606    0.8927   -0.9803 C   0  0  0  0  0  0  0  0  0  0  0  0
  -10.0664    1.3051   -3.0603 C   0  0  0  0  0  0  0  0  0  0  0  0
  -10.3956    2.0638   -3.9502 O   0  0  0  0  0  0  0  0  0  0  0  0
   -9.0031    3.9168   -3.0137 F   0  0  0  0  0  0  0  0  0  0  0  0
   -0.0156    1.4756    0.0346 N   0  0  0  0  0  4  0  0  0  0  0  0
    1.0313    2.0978    0.0547 O   0  0  0  0  0  0  0  0  0  0  0  0
   -1.0780    2.0713    0.0266 O   0  5  0  0  0  0  0  0  0  0  0  0
    0.0574   -3.8529   -0.0424 H   0  0  0  0  0  0  0  0  0  0  0  0
    2.1601   -2.5861   -0.2197 H   0  0  0  0  0  0  0  0  0  0  0  0
    2.1261   -0.1257   -0.1939 H   0  0  0  0  0  0  0  0  0  0  0  0
   -2.0853   -2.6617    0.1715 H   0  0  0  0  0  0  0  0  0  0  0  0
   -2.4234    0.9303    0.1679 H   0  0  0  0  0  0  0  0  0  0  0  0
   -3.8031   -1.4759   -0.3642 H   0  0  0  0  0  0  0  0  0  0  0  0
   -3.5566   -1.3477    1.3939 H   0  0  0  0  0  0  0  0  0  0  0  0
   -4.6484    0.8786    1.3847 H   0  0  0  0  0  0  0  0  0  0  0  0
   -4.8949    0.7505   -0.3734 H   0  0  0  0  0  0  0  0  0  0  0  0
   -6.0731   -1.5187    0.6381 H   0  0  0  0  0  0  0  0  0  0  0  0
   -6.7346    2.9560    0.7541 H   0  0  0  0  0  0  0  0  0  0  0  0
   -7.3866    4.4959   -1.0476 H   0  0  0  0  0  0  0  0  0  0  0  0
   -9.1432   -0.1170   -0.9572 H   0  0  0  0  0  0  0  0  0  0  0  0
  -10.5459    0.0462   -3.0367 O   0  0  0  0  0  1  0  0  0  0  0  0
  1  6  2  0  0  0  0
  1  2  1  0  0  0  0
  1 26  1  0  0  0  0
  2  3  2  0  0  0  0
  2 27  1  0  0  0  0
  3  4  1  0  0  0  0
  3 28  1  0  0  0  0
  4  5  2  0  0  0  0
  4 23  1  0  0  0  0
  5  6  1  0  0  0  0
  5  7  1  0  0  0  0
  6 29  1  0  0  0  0
  7  8  1  0  0  0  0
  7 30  1  0  0  0  0
  8  9  1  0  0  0  0
  8 31  1  0  0  0  0
  8 32  1  0  0  0  0
  9 10  1  0  0  0  0
  9 33  1  0  0  0  0
  9 34  1  0  0  0  0
 10 11  1  0  0  0  0
 10 35  1  0  0  0  0
 11 12  2  0  0  0  0
 11 13  2  0  0  0  0
 11 14  1  0  0  0  0
 14 19  2  0  0  0  0
 14 15  1  0  0  0  0
 15 16  2  0  0  0  0
 15 36  1  0  0  0  0
 16 17  1  0  0  0  0
 16 37  1  0  0  0  0
 17 18  2  0  0  0  0
 17 22  1  0  0  0  0
 18 19  1  0  0  0  0
 18 20  1  0  0  0  0
 19 38  1  0  0  0  0
 20 21  2  0  0  0  0
 20 39  1  0  0  0  0
 23 24  2  0  0  0  0
 23 25  1  0  0  0  0
M  CHG  1  25  -1
M  END
$$$$
ZINC23485994
 OpenBabel01252620473D

 62 63  0  0  1  0  0  0  0  0999 V2000
   -1.0819    1.8283   -1.1811 C   0  0  0  0  0  0  0  0  0  0  0  0
   -1.0447    0.3108   -0.9893 C   0  0  0  0  0  0  0  0  0  0  0  0
   -0.0732   -0.2569   -1.8702 O   0  0  0  0  0  0  0  0  0  0  0  0
    0.0852   -1.5951   -1.8259 C   0  0  0  0  0  0  0  0  0  0  0  0
   -0.6480   -2.3254   -0.9865 O   0  0  0  0  0  0  0  0  0  0  0  0
    1.0135   -2.2131   -2.6562 C   0  0  0  0  0  0  0  0  0  0  0  0
    1.3122   -3.5602   -2.5265 C   0  0  0  0  0  0  0  0  0  0  0  0
    2.1897   -4.1607   -3.3064 N   0  0  0  0  0  0  0  0  0  0  0  0
    2.8725   -3.5821   -4.2748 C   0  0  0  0  0  0  0  0  0  0  0  0
    2.7265   -2.2371   -4.5756 C   0  0  0  0  0  0  0  0  0  0  0  0
    3.4542   -1.6422   -5.6001 C   0  0  0  0  0  0  0  0  0  0  0  0
    4.2177   -2.3899   -6.3961 O   0  5  0  0  0  0  0  0  0  0  0  0
    3.3874   -0.3088   -5.7882 O   0  0  0  0  0  0  0  0  0  0  0  0
    4.2474    0.2499   -6.7834 C   0  0  0  0  0  0  0  0  0  0  0  0
    4.1224    1.7747   -6.7676 C   0  0  0  0  0  0  0  0  0  0  0  0
    1.7360   -1.4407   -3.7454 C   0  0  1  0  0  0  0  0  0  0  0  0
    2.2736   -0.6155   -3.2783 H   0  0  0  0  0  0  0  0  0  0  0  0
    0.7020   -0.8550   -4.6722 C   0  0  0  0  0  0  0  0  0  0  0  0
   -0.1046   -1.5759   -5.2103 O   0  0  0  0  0  0  0  0  0  0  0  0
    0.6771    0.4676   -4.8998 O   0  0  0  0  0  0  0  0  0  0  0  0
   -0.3972    0.9684   -5.6981 C   0  0  0  0  0  0  0  0  0  0  0  0
   -0.2003    2.4432   -5.9372 C   0  0  0  0  0  0  0  0  0  0  0  0
    0.8076    2.9919   -5.5448 O   0  0  0  0  0  0  0  0  0  0  0  0
   -1.1442    3.1524   -6.5871 N   0  0  0  0  0  0  0  0  0  0  0  0
   -2.3733    2.5031   -7.0630 C   0  0  0  0  0  0  0  0  0  0  0  0
   -2.5398    2.7976   -8.5571 C   0  0  0  0  0  0  0  0  0  0  0  0
   -2.5008    4.3109   -8.7820 C   0  0  1  0  0  0  0  0  0  0  0  0
   -1.1463    4.8609   -8.3293 C   0  0  0  0  0  0  0  0  0  0  0  0
   -0.9666    4.5909   -6.8277 C   0  0  0  0  0  0  0  0  0  0  0  0
   -2.7014    4.6105  -10.2690 C   0  0  0  0  0  0  0  0  0  0  0  0
    3.8421   -4.4090   -5.0792 C   0  0  0  0  0  0  0  0  0  0  0  0
    0.6127   -4.3637   -1.4606 C   0  0  0  0  0  0  0  0  0  0  0  0
   -0.1005    2.2469   -0.9580 H   0  0  0  0  0  0  0  0  0  0  0  0
   -1.3487    2.0577   -2.2128 H   0  0  0  0  0  0  0  0  0  0  0  0
   -1.8230    2.2614   -0.5093 H   0  0  0  0  0  0  0  0  0  0  0  0
   -0.7779    0.0814    0.0423 H   0  0  0  0  0  0  0  0  0  0  0  0
   -2.0261   -0.1078   -1.2125 H   0  0  0  0  0  0  0  0  0  0  0  0
    5.2788   -0.0324   -6.5722 H   0  0  0  0  0  0  0  0  0  0  0  0
    3.9609   -0.1280   -7.7648 H   0  0  0  0  0  0  0  0  0  0  0  0
    4.7108    2.1959   -7.5828 H   0  0  0  0  0  0  0  0  0  0  0  0
    3.0764    2.0548   -6.8920 H   0  0  0  0  0  0  0  0  0  0  0  0
    4.4911    2.1596   -5.8168 H   0  0  0  0  0  0  0  0  0  0  0  0
   -0.4146    0.4445   -6.6537 H   0  0  0  0  0  0  0  0  0  0  0  0
   -1.3417    0.8075   -5.1783 H   0  0  0  0  0  0  0  0  0  0  0  0
   -2.3011    1.4265   -6.9086 H   0  0  0  0  0  0  0  0  0  0  0  0
   -3.2298    2.8962   -6.5154 H   0  0  0  0  0  0  0  0  0  0  0  0
   -1.7296    2.3262   -9.1133 H   0  0  0  0  0  0  0  0  0  0  0  0
   -3.4958    2.4032   -8.9013 H   0  0  0  0  0  0  0  0  0  0  0  0
   -3.2959    4.7843   -8.2059 H   0  0  0  0  0  0  0  0  0  0  0  0
   -0.3493    4.3700   -8.8877 H   0  0  0  0  0  0  0  0  0  0  0  0
   -1.1106    5.9350   -8.5115 H   0  0  0  0  0  0  0  0  0  0  0  0
   -1.7107    5.1508   -6.2613 H   0  0  0  0  0  0  0  0  0  0  0  0
    0.0341    4.8923   -6.5181 H   0  0  0  0  0  0  0  0  0  0  0  0
   -3.6666    4.2199  -10.5913 H   0  0  0  0  0  0  0  0  0  0  0  0
   -2.6737    5.6883  -10.4294 H   0  0  0  0  0  0  0  0  0  0  0  0
   -1.9069    4.1368  -10.8455 H   0  0  0  0  0  0  0  0  0  0  0  0
    3.8338   -5.4360   -4.7142 H   0  0  0  0  0  0  0  0  0  0  0  0
    3.5487   -4.3940   -6.1289 H   0  0  0  0  0  0  0  0  0  0  0  0
    4.8452   -3.9950   -4.9764 H   0  0  0  0  0  0  0  0  0  0  0  0
   -0.3552   -4.6980   -1.8342 H   0  0  0  0  0  0  0  0  0  0  0  0
    1.2209   -5.2301   -1.2009 H   0  0  0  0  0  0  0  0  0  0  0  0
    0.4664   -3.7441   -0.5759 H   0  0  0  0  0  0  0  0  0  0  0  0
  1  2  1  0  0  0  0
  1 33  1  0  0  0  0
  1 34  1  0  0  0  0
  1 35  1  0  0  0  0
  2  3  1  0  0  0  0
  2 36  1  0  0  0  0
  2 37  1  0  0  0  0
  3  4  1  0  0  0  0
  4  5  2  0  0  0  0
  4  6  1  0  0  0  0
  6 16  1  0  0  0  0
  6  7  2  0  0  0  0
  7  8  1  0  0  0  0
  7 32  1  0  0  0  0
  8  9  2  0  0  0  0
  9 10  1  0  0  0  0
  9 31  1  0  0  0  0
 10 11  2  0  0  0  0
 10 16  1  0  0  0  0
 11 12  1  0  0  0  0
 11 13  1  0  0  0  0
 13 14  1  0  0  0  0
 14 15  1  0  0  0  0
 14 38  1  0  0  0  0
 14 39  1  0  0  0  0
 15 40  1  0  0  0  0
 15 41  1  0  0  0  0
 15 42  1  0  0  0  0
 16 17  1  1  0  0  0
 16 18  1  0  0  0  0
 18 19  2  0  0  0  0
 18 20  1  0  0  0  0
 20 21  1  0  0  0  0
 21 22  1  0  0  0  0
 21 43  1  0  0  0  0
 21 44  1  0  0  0  0
 22 23  2  0  0  0  0
 22 24  1  0  0  0  0
 24 29  1  0  0  0  0
 24 25  1  0  0  0  0
 25 26  1  0  0  0  0
 25 45  1  0  0  0  0
 25 46  1  0  0  0  0
 26 27  1  0  0  0  0
 26 47  1  0  0  0  0
 26 48  1  0  0  0  0
 27 28  1  0  0  0  0
 27 30  1  0  0  0  0
 27 49  1  1  0  0  0
 28 29  1  0  0  0  0
 28 50  1  0  0  0  0
 28 51  1  0  0  0  0
 29 52  1  0  0  0  0
 29 53  1  0  0  0  0
 30 54  1  0  0  0  0
 30 55  1  0  0  0  0
 30 56  1  0  0  0  0
 31 57  1  0  0  0  0
 31 58  1  0  0  0  0
 31 59  1  0  0  0  0
 32 60  1  0  0  0  0
 32 61  1  0  0  0  0
 32 62  1  0  0  0  0
M  CHG  1  12  -1
M  END
$$$$
ZINC09123716
 OpenBabel01252620473D

 63 67  0  0  1  0  0  0  0  0999 V2000
   -2.5939   -1.6683    7.6027 C   0  0  0  0  0  0  0  0  0  0  0  0
   -3.1587   -0.9436    6.4082 C   0  0  0  0  0  0  0  0  0  0  0  0
   -4.5057   -0.7694    6.2825 C   0  0  0  0  0  0  0  0  0  0  0  0
   -5.0150   -0.0930    5.1663 C   0  0  0  0  0  0  0  0  0  0  0  0
   -4.1739    0.3836    4.2193 C   0  0  0  0  0  0  0  0  0  0  0  0
   -2.8299    0.2193    4.3404 N   0  0  0  0  0  0  0  0  0  0  0  0
   -2.3024   -0.4405    5.4140 C   0  0  0  0  0  0  0  0  0  0  0  0
   -0.9754   -0.4687    5.2869 N   0  0  0  0  0  0  0  0  0  0  0  0
   -0.6182    0.1419    4.1706 C   0  0  0  0  0  0  0  0  0  0  0  0
   -1.7687    0.5921    3.5355 C   0  0  0  0  0  0  0  0  0  0  0  0
   -1.8405    1.2985    2.3093 C   0  0  0  0  0  0  0  0  0  0  0  0
   -2.9253    1.6114    1.8484 O   0  0  0  0  0  0  0  0  0  0  0  0
   -0.6087    1.6536    1.5935 C   0  0  0  0  0  0  0  0  0  0  0  0
    0.2209    2.6830    1.8775 C   0  0  0  0  0  0  0  0  0  0  0  0
    1.3404    2.6847    0.9165 C   0  0  0  0  0  0  0  0  0  0  0  0
    2.2528    3.4875    0.9106 O   0  0  0  0  0  0  0  0  0  0  0  0
    1.2028    1.6663    0.0481 N   0  0  0  0  0  0  0  0  0  0  0  0
   -0.0233    0.9391    0.3977 C   0  0  2  0  0  0  0  0  0  0  0  0
    0.2114   -0.1132    0.6160 H   0  0  0  0  0  0  0  0  0  0  0  0
   -0.9934    0.9741   -0.7549 C   0  0  0  0  0  0  0  0  0  0  0  0
   -1.2737    2.1715   -1.3863 C   0  0  0  0  0  0  0  0  0  0  0  0
   -2.1595    2.2028   -2.4470 C   0  0  0  0  0  0  0  0  0  0  0  0
   -2.7735    1.0384   -2.8694 C   0  0  0  0  0  0  0  0  0  0  0  0
   -2.4975   -0.1580   -2.2343 C   0  0  0  0  0  0  0  0  0  0  0  0
   -1.6073   -0.1902   -1.1773 C   0  0  0  0  0  0  0  0  0  0  0  0
   -3.7259    1.0728   -4.0019 N   0  0  0  0  0  4  0  0  0  0  0  0
   -4.2665    0.0468   -4.3742 O   0  0  0  0  0  0  0  0  0  0  0  0
   -3.9691    2.1270   -4.5614 O   0  5  0  0  0  0  0  0  0  0  0  0
    2.1148    1.3411   -1.0513 C   0  0  0  0  0  0  0  0  0  0  0  0
    1.6743    2.0819   -2.3155 C   0  0  0  0  0  0  0  0  0  0  0  0
    2.5888    1.7558   -3.4179 N   0  0  0  0  0  0  0  0  0  0  0  0
    3.9351    2.2871   -3.1603 C   0  0  0  0  0  0  0  0  0  0  0  0
    4.8679    1.8744   -4.3020 C   0  0  0  0  0  0  0  0  0  0  0  0
    4.3300    2.3406   -5.5425 O   0  0  0  0  0  0  0  0  0  0  0  0
    3.0198    1.8420   -5.8255 C   0  0  0  0  0  0  0  0  0  0  0  0
    2.0683    2.2544   -4.6992 C   0  0  0  0  0  0  0  0  0  0  0  0
    0.0510    3.5721    2.8851 O   0  5  0  0  0  0  0  0  0  0  0  0
    0.7931    0.3196    3.6729 C   0  0  0  0  0  0  0  0  0  0  0  0
   -3.4156   -1.9832    8.2627 H   0  0  0  0  0  0  0  0  0  0  0  0
   -1.9182   -0.9970    8.1530 H   0  0  0  0  0  0  0  0  0  0  0  0
   -2.0357   -2.5536    7.2642 H   0  0  0  0  0  0  0  0  0  0  0  0
   -5.1757   -1.1510    7.0388 H   0  0  0  0  0  0  0  0  0  0  0  0
   -6.0806    0.0479    5.0612 H   0  0  0  0  0  0  0  0  0  0  0  0
   -4.5739    0.9037    3.3614 H   0  0  0  0  0  0  0  0  0  0  0  0
   -0.7974    3.0819   -1.0535 H   0  0  0  0  0  0  0  0  0  0  0  0
   -2.3748    3.1375   -2.9434 H   0  0  0  0  0  0  0  0  0  0  0  0
   -2.9771   -1.0677   -2.5643 H   0  0  0  0  0  0  0  0  0  0  0  0
   -1.3917   -1.1249   -0.6811 H   0  0  0  0  0  0  0  0  0  0  0  0
    3.1364    1.6485   -0.7833 H   0  0  0  0  0  0  0  0  0  0  0  0
    2.0947    0.2569   -1.2359 H   0  0  0  0  0  0  0  0  0  0  0  0
    0.6527    1.7745   -2.5834 H   0  0  0  0  0  0  0  0  0  0  0  0
    1.6944    3.1661   -2.1310 H   0  0  0  0  0  0  0  0  0  0  0  0
    3.8907    3.3845   -3.0990 H   0  0  0  0  0  0  0  0  0  0  0  0
    4.3136    1.8819   -2.2103 H   0  0  0  0  0  0  0  0  0  0  0  0
    5.8619    2.3173   -4.1416 H   0  0  0  0  0  0  0  0  0  0  0  0
    4.9546    0.7781   -4.3266 H   0  0  0  0  0  0  0  0  0  0  0  0
    2.6660    2.2613   -6.7789 H   0  0  0  0  0  0  0  0  0  0  0  0
    3.0525    0.7448   -5.8971 H   0  0  0  0  0  0  0  0  0  0  0  0
    1.0723    1.8250   -4.8823 H   0  0  0  0  0  0  0  0  0  0  0  0
    1.9937    3.3513   -4.6628 H   0  0  0  0  0  0  0  0  0  0  0  0
    0.7792    0.8659    2.7182 H   0  0  0  0  0  0  0  0  0  0  0  0
    1.2564   -0.6669    3.5241 H   0  0  0  0  0  0  0  0  0  0  0  0
    1.3739    0.8895    4.4131 H   0  0  0  0  0  0  0  0  0  0  0  0
  1  2  1  0  0  0  0
  1 39  1  0  0  0  0
  1 40  1  0  0  0  0
  1 41  1  0  0  0  0
  2  7  1  0  0  0  0
  2  3  2  0  0  0  0
  3  4  1  0  0  0  0
  3 42  1  0  0  0  0
  4  5  2  0  0  0  0
  4 43  1  0  0  0  0
  5  6  1  0  0  0  0
  5 44  1  0  0  0  0
  6 10  1  0  0  0  0
  6  7  1  0  0  0  0
  7  8  2  0  0  0  0
  8  9  1  0  0  0  0
  9 10  2  0  0  0  0
  9 38  1  0  0  0  0
 10 11  1  0  0  0  0
 11 12  2  0  0  0  0
 11 13  1  0  0  0  0
 13 18  1  0  0  0  0
 13 14  2  0  0  0  0
 14 15  1  0  0  0  0
 14 37  1  0  0  0  0
 15 16  2  0  0  0  0
 15 17  1  0  0  0  0
 17 18  1  0  0  0  0
 17 29  1  0  0  0  0
 18 19  1  1  0  0  0
 18 20  1  0  0  0  0
 20 25  2  0  0  0  0
 20 21  1  0  0  0  0
 21 22  2  0  0  0  0
 21 45  1  0  0  0  0
 22 23  1  0  0  0  0
 22 46  1  0  0  0  0
 23 24  2  0  0  0  0
 23 26  1  0  0  0  0
 24 25  1  0  0  0  0
 24 47  1  0  0  0  0
 25 48  1  0  0  0  0
 26 27  2  0  0  0  0
 26 28  1  0  0  0  0
 29 30  1  0  0  0  0
 29 49  1  0  0  0  0
 29 50  1  0  0  0  0
 30 31  1  0  0  0  0
 30 51  1  0  0  0  0
 30 52  1  0  0  0  0
 31 36  1  0  0  0  0
 31 32  1  0  0  0  0
 32 33  1  0  0  0  0
 32 53  1  0  0  0  0
 32 54  1  0  0  0  0
 33 34  1  0  0  0  0
 33 55  1  0  0  0  0
 33 56  1  0  0  0  0
 34 35  1  0  0  0  0
 35 36  1  0  0  0  0
 35 57  1  0  0  0  0
 35 58  1  0  0  0  0
 36 59  1  0  0  0  0
 36 60  1  0  0  0  0
 38 61  1  0  0  0  0
 38 62  1  0  0  0  0
 38 63  1  0  0  0  0
M  CHG  2  28  -1  37  -1
M  END
$$$$
ZINC39980294
 OpenBabel01252620473D

 42 45  0  0  1  0  0  0  0  0999 V2000
   -0.0167    1.3790    0.0096 C   0  0  0  0  0  0  0  0  0  0  0  0
    1.1687    2.0918    0.0021 C   0  0  0  0  0  0  0  0  0  0  0  0
    2.3774    1.4257   -0.0129 C   0  0  0  0  0  0  0  0  0  0  0  0
    2.4021    0.0327   -0.0206 C   0  0  0  0  0  0  0  0  0  0  0  0
    1.2051   -0.6804   -0.0130 C   0  0  0  0  0  0  0  0  0  0  0  0
    0.0021   -0.0041    0.0020 C   0  0  0  0  0  0  0  0  0  0  0  0
    3.6989   -0.6891   -0.0373 C   0  0  0  0  0  0  0  0  0  0  0  0
    3.8530   -2.0253   -0.0514 N   0  0  0  0  0  0  0  0  0  0  0  0
    5.1197   -2.3280   -0.0646 C   0  0  0  0  0  0  0  0  0  0  0  0
    5.8280   -1.1914   -0.0594 O   0  0  0  0  0  0  0  0  0  0  0  0
    4.8841   -0.1309   -0.0465 N   0  0  0  0  0  0  0  0  0  0  0  0
    5.6918   -3.7221   -0.0818 C   0  0  0  0  0  0  0  0  0  0  0  0
    5.8658   -4.1615   -1.4685 N   0  0  0  0  0  0  0  0  0  0  0  0
    6.3668   -5.3850   -1.7300 C   0  0  0  0  0  0  0  0  0  0  0  0
    6.6736   -6.1224   -0.8172 O   0  0  0  0  0  0  0  0  0  0  0  0
    6.5457   -5.8370   -3.1564 C   0  0  0  0  0  0  0  0  0  0  0  0
    7.1265   -7.2523   -3.1739 C   0  0  0  0  0  0  0  0  0  0  0  0
    7.3005   -7.6917   -4.5606 N   0  0  0  0  0  2  0  0  0  0  0  0
    7.8104   -8.9371   -4.8268 C   0  0  0  0  0  0  0  0  0  0  0  0
    8.1665   -9.8091   -3.8789 N   0  0  0  0  0  0  0  0  0  0  0  0
    8.6660  -11.0078   -4.1969 C   0  0  0  0  0  0  0  0  0  0  0  0
    8.5929  -11.6018   -5.3476 N   0  0  0  0  0  0  0  0  0  0  0  0
    7.8732  -10.9600   -6.4475 C   0  0  1  0  0  0  0  0  0  0  0  0
    6.8254  -11.2601   -6.4631 H   0  0  0  0  0  0  0  0  0  0  0  0
    8.0189   -9.4604   -6.1900 C   0  0  0  0  0  0  0  0  0  0  0  0
    8.3571   -8.9565   -7.3153 N   0  0  0  0  0  0  0  0  0  0  0  0
    8.7132   -9.9139   -8.1951 C   0  0  0  0  0  0  0  0  0  0  0  0
    8.4942  -11.1303   -7.7590 N   0  0  0  0  0  0  0  0  0  0  0  0
   -0.9602    1.9042    0.0260 H   0  0  0  0  0  0  0  0  0  0  0  0
    1.1483    3.1716    0.0077 H   0  0  0  0  0  0  0  0  0  0  0  0
    3.3023    1.9832   -0.0191 H   0  0  0  0  0  0  0  0  0  0  0  0
    1.2187   -1.7603   -0.0193 H   0  0  0  0  0  0  0  0  0  0  0  0
   -0.9264   -0.5558    0.0079 H   0  0  0  0  0  0  0  0  0  0  0  0
    6.6573   -3.7249    0.4240 H   0  0  0  0  0  0  0  0  0  0  0  0
    5.0107   -4.4008    0.4316 H   0  0  0  0  0  0  0  0  0  0  0  0
    5.6204   -3.5717   -2.1985 H   0  0  0  0  0  0  0  0  0  0  0  0
    5.5802   -5.8342   -3.6623 H   0  0  0  0  0  0  0  0  0  0  0  0
    7.2268   -5.1583   -3.6698 H   0  0  0  0  0  0  0  0  0  0  0  0
    8.0920   -7.2551   -2.6681 H   0  0  0  0  0  0  0  0  0  0  0  0
    6.4454   -7.9310   -2.6605 H   0  0  0  0  0  0  0  0  0  0  0  0
    9.1859  -11.5376   -3.4124 H   0  0  0  0  0  0  0  0  0  0  0  0
    9.1372   -9.7030   -9.1658 H   0  0  0  0  0  0  0  0  0  0  0  0
  1  6  2  0  0  0  0
  1  2  1  0  0  0  0
  1 29  1  0  0  0  0
  2  3  2  0  0  0  0
  2 30  1  0  0  0  0
  3  4  1  0  0  0  0
  3 31  1  0  0  0  0
  4  5  2  0  0  0  0
  4  7  1  0  0  0  0
  5  6  1  0  0  0  0
  5 32  1  0  0  0  0
  6 33  1  0  0  0  0
  7 11  2  0  0  0  0
  7  8  1  0  0  0  0
  8  9  2  0  0  0  0
  9 10  1  0  0  0  0
  9 12  1  0  0  0  0
 10 11  1  0  0  0  0
 12 13  1  0  0  0  0
 12 34  1  0  0  0  0
 12 35  1  0  0  0  0
 13 14  1  0  0  0  0
 13 36  1  0  0  0  0
 14 15  2  0  0  0  0
 14 16  1  0  0  0  0
 16 17  1  0  0  0  0
 16 37  1  0  0  0  0
 16 38  1  0  0  0  0
 17 18  1  0  0  0  0
 17 39  1  0  0  0  0
 17 40  1  0  0  0  0
 18 19  1  0  0  0  0
 19 25  1  0  0  0  0
 19 20  2  0  0  0  0
 20 21  1  0  0  0  0
 21 22  2  0  0  0  0
 21 41  1  0  0  0  0
 22 23  1  0  0  0  0
 23 24  1  6  0  0  0
 23 28  1  0  0  0  0
 23 25  1  0  0  0  0
 25 26  2  0  0  0  0
 26 27  1  0  0  0  0
 27 28  2  0  0  0  0
 27 42  1  0  0  0  0
M  END
$$$$
ZINC66581459
 OpenBabel01252620473D

 50 52  0  0  0  0  0  0  0  0999 V2000
   -0.0012    1.3512    0.3873 C   0  0  0  0  0  0  0  0  0  0  0  0
    1.1782    2.0602    0.3949 C   0  0  0  0  0  0  0  0  0  0  0  0
    2.3698    1.4358    0.0365 C   0  0  0  0  0  0  0  0  0  0  0  0
    2.3723    0.0928   -0.3306 C   0  0  0  0  0  0  0  0  0  0  0  0
    1.1962   -0.6214   -0.3406 C   0  0  0  0  0  0  0  0  0  0  0  0
   -0.0019    0.0026    0.0192 C   0  0  0  0  0  0  0  0  0  0  0  0
   -1.2644   -0.7605    0.0105 C   0  0  0  0  0  0  0  0  0  0  0  0
   -1.2893   -1.8995    0.4356 O   0  0  0  0  0  0  0  0  0  0  0  0
   -2.3902   -0.1952   -0.4686 N   0  0  0  0  0  0  0  0  0  0  0  0
   -3.6805   -0.8898   -0.3620 C   0  0  0  0  0  0  0  0  0  0  0  0
   -4.3149   -0.9679   -1.7542 C   0  0  0  0  0  0  0  0  0  0  0  0
   -4.4059    0.4394   -2.3486 C   0  0  0  0  0  0  0  0  0  0  0  0
   -2.9999    1.0269   -2.4907 C   0  0  0  0  0  0  0  0  0  0  0  0
   -2.3515    1.1300   -1.1019 C   0  0  0  0  0  0  0  0  0  0  0  0
   -5.0267    0.3741   -3.6340 O   0  0  0  0  0  0  0  0  0  0  0  0
    3.5598    2.1550    0.0447 N   0  0  0  0  0  2  0  0  0  0  0  0
    4.9781    1.4140   -0.3813 S   0  0  0  0  0  0  0  0  0  0  0  0
    5.1770    0.4148    0.6093 O   0  0  0  0  0  0  0  0  0  0  0  0
    4.8051    1.0570   -1.7458 O   0  0  0  0  0  0  0  0  0  0  0  0
    6.2429    2.7054   -0.2289 C   0  0  0  0  0  0  0  0  0  0  0  0
    5.8406    3.9155   -1.0744 C   0  0  0  0  0  0  0  0  0  0  0  0
    6.9074    5.0047   -0.9458 C   0  0  0  0  0  0  0  0  0  0  0  0
    8.2512    4.4631   -1.4375 C   0  0  0  0  0  0  0  0  0  0  0  0
    8.6534    3.2530   -0.5921 C   0  0  0  0  0  0  0  0  0  0  0  0
    7.5867    2.1637   -0.7206 C   0  0  0  0  0  0  0  0  0  0  0  0
   -0.9245    1.8350    0.6698 H   0  0  0  0  0  0  0  0  0  0  0  0
    1.1794    3.1022    0.6788 H   0  0  0  0  0  0  0  0  0  0  0  0
    3.2983   -0.3888   -0.6081 H   0  0  0  0  0  0  0  0  0  0  0  0
    1.1987   -1.6630   -0.6261 H   0  0  0  0  0  0  0  0  0  0  0  0
   -3.5226   -1.8967    0.0246 H   0  0  0  0  0  0  0  0  0  0  0  0
   -4.3385   -0.3375    0.3089 H   0  0  0  0  0  0  0  0  0  0  0  0
   -3.7007   -1.5962   -2.3992 H   0  0  0  0  0  0  0  0  0  0  0  0
   -5.3147   -1.3947   -1.6750 H   0  0  0  0  0  0  0  0  0  0  0  0
   -4.9997    1.0739   -1.6906 H   0  0  0  0  0  0  0  0  0  0  0  0
   -2.3980    0.3798   -3.1288 H   0  0  0  0  0  0  0  0  0  0  0  0
   -3.0637    2.0198   -2.9357 H   0  0  0  0  0  0  0  0  0  0  0  0
   -2.9033    1.8436   -0.4900 H   0  0  0  0  0  0  0  0  0  0  0  0
   -1.3164    1.4563   -1.2036 H   0  0  0  0  0  0  0  0  0  0  0  0
   -5.1177    1.2320   -4.0709 H   0  0  0  0  0  0  0  0  0  0  0  0
    6.3321    3.0052    0.8152 H   0  0  0  0  0  0  0  0  0  0  0  0
    5.7514    3.6157   -2.1185 H   0  0  0  0  0  0  0  0  0  0  0  0
    4.8833    4.3014   -0.7241 H   0  0  0  0  0  0  0  0  0  0  0  0
    6.6208    5.8668   -1.5481 H   0  0  0  0  0  0  0  0  0  0  0  0
    6.9966    5.3045    0.0983 H   0  0  0  0  0  0  0  0  0  0  0  0
    8.1620    4.1633   -2.4817 H   0  0  0  0  0  0  0  0  0  0  0  0
    9.0112    5.2391   -1.3459 H   0  0  0  0  0  0  0  0  0  0  0  0
    9.6108    2.8671   -0.9424 H   0  0  0  0  0  0  0  0  0  0  0  0
    8.7426    3.5527    0.4521 H   0  0  0  0  0  0  0  0  0  0  0  0
    7.8732    1.3016   -0.1183 H   0  0  0  0  0  0  0  0  0  0  0  0
    7.4975    1.8640   -1.7648 H   0  0  0  0  0  0  0  0  0  0  0  0
  1  6  2  0  0  0  0
  1  2  1  0  0  0  0
  1 26  1  0  0  0  0
  2  3  2  0  0  0  0
  2 27  1  0  0  0  0
  3  4  1  0  0  0  0
  3 16  1  0  0  0  0
  4  5  2  0  0  0  0
  4 28  1  0  0  0  0
  5  6  1  0  0  0  0
  5 29  1  0  0  0  0
  6  7  1  0  0  0  0
  7  8  2  0  0  0  0
  7  9  1  0  0  0  0
  9 14  1  0  0  0  0
  9 10  1  0  0  0  0
 10 11  1  0  0  0  0
 10 30  1  0  0  0  0
 10 31  1  0  0  0  0
 11 12  1  0  0  0  0
 11 32  1  0  0  0  0
 11 33  1  0  0  0  0
 12 13  1  0  0  0  0
 12 15  1  0  0  0  0
 12 34  1  0  0  0  0
 13 14  1  0  0  0  0
 13 35  1  0  0  0  0
 13 36  1  0  0  0  0
 14 37  1  0  0  0  0
 14 38  1  0  0  0  0
 15 39  1  0  0  0  0
 16 17  1  0  0  0  0
 17 18  2  0  0  0  0
 17 19  2  0  0  0  0
 17 20  1  0  0  0  0
 20 25  1  0  0  0  0
 20 21  1  0  0  0  0
 20 40  1  0  0  0  0
 21 22  1  0  0  0  0
 21 41  1  0  0  0  0
 21 42  1  0  0  0  0
 22 23  1  0  0  0  0
 22 43  1  0  0  0  0
 22 44  1  0  0  0  0
 23 24  1  0  0  0  0
 23 45  1  0  0  0  0
 23 46  1  0  0  0  0
 24 25  1  0  0  0  0
 24 47  1  0  0  0  0
 24 48  1  0  0  0  0
 25 49  1  0  0  0  0
 25 50  1  0  0  0  0
M  END
$$$$
ZINC52768144
 OpenBabel01252620473D

 37 38  0  0  0  0  0  0  0  0999 V2000
   -0.0184    1.5028    0.0103 C   0  0  0  0  0  0  0  0  0  0  0  0
    0.0021   -0.0041    0.0020 C   0  0  0  0  0  0  0  0  0  0  0  0
    0.0066   -0.7140   -1.1436 C   0  0  0  0  0  0  0  0  0  0  0  0
    0.0320   -2.4006   -0.5766 S   0  0  0  0  0  0  0  0  0  0  0  0
    0.0361   -2.1535    1.0829 C   0  0  0  0  0  0  0  0  0  0  0  0
    0.0241   -0.7774    1.2201 C   0  0  0  0  0  0  0  0  0  0  0  0
    0.0284   -0.1333    2.5437 C   0  0  0  0  0  0  0  0  0  0  0  0
    1.2019    0.1783    3.1406 O   0  5  0  0  0  0  0  0  0  0  0  0
   -1.0990    0.1370    3.1410 N   0  0  0  0  0  0  0  0  0  0  0  0
   -1.0942    0.8617    4.6300 S   0  0  0  0  0  0  0  0  0  0  0  0
   -0.5221   -0.0730    5.5347 O   0  0  0  0  0  0  0  0  0  0  0  0
   -0.5625    2.1664    4.4451 O   0  0  0  0  0  0  0  0  0  0  0  0
   -2.6746    1.0549    5.0856 N   0  0  0  0  0  0  0  0  0  0  0  0
   -3.3531   -0.0004    5.8421 C   0  0  0  0  0  0  0  0  0  0  0  0
   -3.3941    2.2810    4.7321 C   0  0  0  0  0  0  0  0  0  0  0  0
    0.0532   -3.1140    2.0912 N   0  0  0  0  0  0  0  0  0  0  0  0
    0.0494   -2.8602    3.4339 C   0  0  0  0  0  0  0  0  0  0  0  0
    0.0694   -4.0405    4.0856 C   0  0  0  0  0  0  0  0  0  0  0  0
    0.0862   -5.0610    3.1131 C   0  0  0  0  0  0  0  0  0  0  0  0
    0.0707   -4.4673    1.9025 C   0  0  0  0  0  0  0  0  0  0  0  0
   -0.0072   -0.2032   -2.5613 C   0  0  0  0  0  0  0  0  0  0  0  0
    1.0042    1.8801    0.0026 H   0  0  0  0  0  0  0  0  0  0  0  0
   -0.5455    1.8639   -0.8728 H   0  0  0  0  0  0  0  0  0  0  0  0
   -0.5286    1.8543    0.9071 H   0  0  0  0  0  0  0  0  0  0  0  0
   -2.6637   -0.8279    6.0097 H   0  0  0  0  0  0  0  0  0  0  0  0
   -3.6846    0.3964    6.8017 H   0  0  0  0  0  0  0  0  0  0  0  0
   -4.2157   -0.3547    5.2779 H   0  0  0  0  0  0  0  0  0  0  0  0
   -3.8792    2.1515    3.7646 H   0  0  0  0  0  0  0  0  0  0  0  0
   -4.1476    2.4918    5.4910 H   0  0  0  0  0  0  0  0  0  0  0  0
   -2.6909    3.1121    4.6776 H   0  0  0  0  0  0  0  0  0  0  0  0
    0.0334   -1.8831    3.8937 H   0  0  0  0  0  0  0  0  0  0  0  0
    0.0724   -4.1788    5.1567 H   0  0  0  0  0  0  0  0  0  0  0  0
    0.1042   -6.1240    3.3030 H   0  0  0  0  0  0  0  0  0  0  0  0
    0.0742   -4.9738    0.9486 H   0  0  0  0  0  0  0  0  0  0  0  0
    1.0171   -0.0658   -2.9079 H   0  0  0  0  0  0  0  0  0  0  0  0
   -0.5140   -0.9244   -3.2025 H   0  0  0  0  0  0  0  0  0  0  0  0
   -0.5344    0.7500   -2.5990 H   0  0  0  0  0  0  0  0  0  0  0  0
  1  2  1  0  0  0  0
  1 22  1  0  0  0  0
  1 23  1  0  0  0  0
  1 24  1  0  0  0  0
  2  6  1  0  0  0  0
  2  3  2  0  0  0  0
  3  4  1  0  0  0  0
  3 21  1  0  0  0  0
  4  5  1  0  0  0  0
  5  6  2  0  0  0  0
  5 16  1  0  0  0  0
  6  7  1  0  0  0  0
  7  8  1  0  0  0  0
  7  9  2  0  0  0  0
  9 10  1  0  0  0  0
 10 11  2  0  0  0  0
 10 12  2  0  0  0  0
 10 13  1  0  0  0  0
 13 14  1  0  0  0  0
 13 15  1  0  0  0  0
 14 25  1  0  0  0  0
 14 26  1  0  0  0  0
 14 27  1  0  0  0  0
 15 28  1  0  0  0  0
 15 29  1  0  0  0  0
 15 30  1  0  0  0  0
 16 20  1  0  0  0  0
 16 17  1  0  0  0  0
 17 18  2  0  0  0  0
 17 31  1  0  0  0  0
 18 19  1  0  0  0  0
 18 32  1  0  0  0  0
 19 20  2  0  0  0  0
 19 33  1  0  0  0  0
 20 34  1  0  0  0  0
 21 35  1  0  0  0  0
 21 36  1  0  0  0  0
 21 37  1  0  0  0  0
M  CHG  1   8  -1
M  END
$$$$
ZINC03921005
 OpenBabel01252620473D

 37 39  0  0  0  0  0  0  0  0999 V2000
   -0.6305   -4.8479    6.2523 C   0  0  0  0  0  0  0  0  0  0  0  0
   -0.8655   -4.7679    4.8044 N   0  0  0  0  0  0  0  0  0  0  0  0
   -2.2809   -5.0002    4.4872 C   0  0  0  0  0  0  0  0  0  0  0  0
   -0.4425   -3.5688    4.3053 N   0  0  0  0  0  0  0  0  0  0  0  0
    0.5121   -3.5336    3.3545 C   0  0  0  0  0  0  0  0  0  0  0  0
    0.9971   -4.5701    2.9406 O   0  0  0  0  0  0  0  0  0  0  0  0
    0.9664   -2.2459    2.8185 C   0  0  0  0  0  0  0  0  0  0  0  0
    2.0533   -1.5585    3.4254 C   0  0  0  0  0  0  0  0  0  0  0  0
    2.6305   -2.0223    4.3937 O   0  0  0  0  0  0  0  0  0  0  0  0
    2.4583   -0.2649    2.8436 C   0  0  0  0  0  0  0  0  0  0  0  0
    3.5160    0.4576    3.3972 C   0  0  0  0  0  0  0  0  0  0  0  0
    3.8822    1.6646    2.8458 C   0  0  0  0  0  0  0  0  0  0  0  0
    3.1993    2.1599    1.7454 C   0  0  0  0  0  0  0  0  0  0  0  0
    2.1518    1.4564    1.1897 C   0  0  0  0  0  0  0  0  0  0  0  0
    1.7673    0.2306    1.7240 C   0  0  0  0  0  0  0  0  0  0  0  0
    0.7255   -0.4977    1.1805 N   0  0  0  0  0  0  0  0  0  0  0  0
    0.3395   -1.6856    1.7124 C   0  0  0  0  0  0  0  0  0  0  0  0
   -0.6900   -2.3453    1.1471 O   0  5  0  0  0  0  0  0  0  0  0  0
    0.0021   -0.0041    0.0020 C   0  0  0  0  0  0  0  0  0  0  0  0
   -0.0187    1.5251    0.0104 C   0  0  0  0  0  0  0  0  0  0  0  0
    1.4267    2.0328   -0.0006 C   0  0  0  0  0  0  0  0  0  0  0  0
    0.4348   -4.6705    6.4612 H   0  0  0  0  0  0  0  0  0  0  0  0
   -0.9139   -5.8469    6.6151 H   0  0  0  0  0  0  0  0  0  0  0  0
   -1.2364   -4.0862    6.7647 H   0  0  0  0  0  0  0  0  0  0  0  0
   -2.4283   -4.9347    3.3991 H   0  0  0  0  0  0  0  0  0  0  0  0
   -2.8984   -4.2395    4.9873 H   0  0  0  0  0  0  0  0  0  0  0  0
   -2.5758   -6.0003    4.8377 H   0  0  0  0  0  0  0  0  0  0  0  0
   -0.8810   -2.6319    4.6794 H   0  0  0  0  0  0  0  0  0  0  0  0
    4.0454    0.0712    4.2556 H   0  0  0  0  0  0  0  0  0  0  0  0
    4.7012    2.2260    3.2706 H   0  0  0  0  0  0  0  0  0  0  0  0
    3.4911    3.1082    1.3188 H   0  0  0  0  0  0  0  0  0  0  0  0
    0.5049   -0.3562   -0.9109 H   0  0  0  0  0  0  0  0  0  0  0  0
   -1.0307   -0.3822    0.0208 H   0  0  0  0  0  0  0  0  0  0  0  0
   -0.5507    1.8894   -0.8808 H   0  0  0  0  0  0  0  0  0  0  0  0
   -0.5337    1.8799    0.9154 H   0  0  0  0  0  0  0  0  0  0  0  0
    1.4370    3.1311    0.0604 H   0  0  0  0  0  0  0  0  0  0  0  0
    1.9279    1.7122   -0.9258 H   0  0  0  0  0  0  0  0  0  0  0  0
  1  2  1  0  0  0  0
  1 22  1  0  0  0  0
  1 23  1  0  0  0  0
  1 24  1  0  0  0  0
  2  3  1  0  0  0  0
  2  4  1  0  0  0  0
  3 25  1  0  0  0  0
  3 26  1  0  0  0  0
  3 27  1  0  0  0  0
  4  5  1  0  0  0  0
  4 28  1  0  0  0  0
  5  6  2  0  0  0  0
  5  7  1  0  0  0  0
  7 17  2  0  0  0  0
  7  8  1  0  0  0  0
  8  9  2  0  0  0  0
  8 10  1  0  0  0  0
 10 15  2  0  0  0  0
 10 11  1  0  0  0  0
 11 12  2  0  0  0  0
 11 29  1  0  0  0  0
 12 13  1  0  0  0  0
 12 30  1  0  0  0  0
 13 14  2  0  0  0  0
 13 31  1  0  0  0  0
 14 21  1  0  0  0  0
 14 15  1  0  0  0  0
 15 16  1  0  0  0  0
 16 17  1  0  0  0  0
 16 19  1  0  0  0  0
 17 18  1  0  0  0  0
 19 20  1  0  0  0  0
 19 32  1  0  0  0  0
 19 33  1  0  0  0  0
 20 21  1  0  0  0  0
 20 34  1  0  0  0  0
 20 35  1  0  0  0  0
 21 36  1  0  0  0  0
 21 37  1  0  0  0  0
M  CHG  1  18  -1
M  END
$$$$
ZINC50011070
 OpenBabel01252620473D

 35 36  0  0  0  0  0  0  0  0999 V2000
    0.2947    1.4314    0.0036 C   0  0  0  0  0  0  0  0  0  0  0  0
    0.0021   -0.0041    0.0020 N   0  0  0  0  0  0  0  0  0  0  0  0
    0.5739   -0.8353    0.9704 C   0  0  0  0  0  0  0  0  0  0  0  0
   -0.2206   -1.7247    1.6809 C   0  0  0  0  0  0  0  0  0  0  0  0
    0.3472   -2.5450    2.6366 C   0  0  0  0  0  0  0  0  0  0  0  0
    1.7055   -2.4813    2.8870 C   0  0  0  0  0  0  0  0  0  0  0  0
    2.5012   -1.5967    2.1822 C   0  0  0  0  0  0  0  0  0  0  0  0
    1.9409   -0.7770    1.2198 C   0  0  0  0  0  0  0  0  0  0  0  0
    2.7191    0.0830    0.5270 F   0  0  0  0  0  0  0  0  0  0  0  0
   -0.8896   -0.5688   -1.0140 C   0  0  0  0  0  0  0  0  0  0  0  0
   -0.4975   -2.0198   -1.2762 C   0  0  0  0  0  0  0  0  0  0  0  0
    1.0094   -2.1167   -1.5283 C   0  0  0  0  0  0  0  0  0  0  0  0
    1.4155   -1.1792   -3.0312 S   0  0  0  0  0  0  0  0  0  0  0  0
    2.8272   -1.0360   -3.1068 O   0  0  0  0  0  0  0  0  0  0  0  0
    0.7179   -1.7566   -4.1263 O   0  0  0  0  0  0  0  0  0  0  0  0
    0.6881    0.4468   -2.6712 C   0  0  0  0  0  0  0  0  0  0  0  0
   -0.7829    0.2583   -2.2918 C   0  0  0  0  0  0  0  0  0  0  0  0
   -2.3089   -0.5224   -0.5098 C   0  0  0  0  0  0  0  0  0  0  0  0
   -2.5493   -0.0612    0.5930 O   0  0  0  0  0  0  0  0  0  0  0  0
   -3.2169   -0.9460   -1.2045 O   0  0  0  0  0  1  0  0  0  0  0  0
    1.2312    1.6119   -0.5240 H   0  0  0  0  0  0  0  0  0  0  0  0
   -0.5127    1.9673   -0.4955 H   0  0  0  0  0  0  0  0  0  0  0  0
    0.3832    1.7830    1.0316 H   0  0  0  0  0  0  0  0  0  0  0  0
   -1.2819   -1.7751    1.4870 H   0  0  0  0  0  0  0  0  0  0  0  0
   -0.2710   -3.2369    3.1894 H   0  0  0  0  0  0  0  0  0  0  0  0
    2.1461   -3.1238    3.6351 H   0  0  0  0  0  0  0  0  0  0  0  0
    3.5618   -1.5493    2.3805 H   0  0  0  0  0  0  0  0  0  0  0  0
   -0.7593   -2.6276   -0.4101 H   0  0  0  0  0  0  0  0  0  0  0  0
   -1.0350   -2.3876   -2.1503 H   0  0  0  0  0  0  0  0  0  0  0  0
    1.5493   -1.6974   -0.6793 H   0  0  0  0  0  0  0  0  0  0  0  0
    1.2907   -3.1612   -1.6624 H   0  0  0  0  0  0  0  0  0  0  0  0
    1.2225    0.9103   -1.8419 H   0  0  0  0  0  0  0  0  0  0  0  0
    0.7590    1.0821   -3.5541 H   0  0  0  0  0  0  0  0  0  0  0  0
   -1.3020   -0.2564   -3.1004 H   0  0  0  0  0  0  0  0  0  0  0  0
   -1.2430    1.2333   -2.1313 H   0  0  0  0  0  0  0  0  0  0  0  0
  1  2  1  0  0  0  0
  1 21  1  0  0  0  0
  1 22  1  0  0  0  0
  1 23  1  0  0  0  0
  2  3  1  0  0  0  0
  2 10  1  0  0  0  0
  3  8  2  0  0  0  0
  3  4  1  0  0  0  0
  4  5  2  0  0  0  0
  4 24  1  0  0  0  0
  5  6  1  0  0  0  0
  5 25  1  0  0  0  0
  6  7  2  0  0  0  0
  6 26  1  0  0  0  0
  7  8  1  0  0  0  0
  7 27  1  0  0  0  0
  8  9  1  0  0  0  0
 10 17  1  0  0  0  0
 10 11  1  0  0  0  0
 10 18  1  0  0  0  0
 11 12  1  0  0  0  0
 11 28  1  0  0  0  0
 11 29  1  0  0  0  0
 12 13  1  0  0  0  0
 12 30  1  0  0  0  0
 12 31  1  0  0  0  0
 13 14  2  0  0  0  0
 13 15  2  0  0  0  0
 13 16  1  0  0  0  0
 16 17  1  0  0  0  0
 16 32  1  0  0  0  0
 16 33  1  0  0  0  0
 17 34  1  0  0  0  0
 17 35  1  0  0  0  0
 18 19  2  0  0  0  0
 18 20  1  0  0  0  0
M  END
$$$$
ZINC63858072
 OpenBabel01252620473D

 43 44  0  0  0  0  0  0  0  0999 V2000
    0.5104    1.0538   -0.0070 C   0  0  0  0  0  0  0  0  0  0  0  0
    0.3140   -0.4320    0.1511 C   0  0  0  0  0  3  0  0  0  0  0  0
    0.3663   -1.2484   -0.9605 C   0  0  0  0  0  0  0  0  0  0  0  0
    0.1848   -2.6146   -0.8083 C   0  0  0  0  0  0  0  0  0  0  0  0
   -0.0452   -3.1165    0.4702 C   0  0  0  0  0  0  0  0  0  0  0  0
   -0.0850   -2.2400    1.5415 C   0  0  0  0  0  0  0  0  0  0  0  0
    0.0985   -0.9395    1.3574 N   0  0  0  0  0  0  0  0  0  0  0  0
    0.0585   -0.0953    2.4437 C   0  0  0  0  0  0  0  0  0  0  0  0
    1.2365    0.4621    2.9365 C   0  0  0  0  0  0  0  0  0  0  0  0
    2.4334    0.1702    2.3404 N   0  0  0  0  0  0  0  0  0  0  0  0
    3.6720    0.7563    2.8585 C   0  0  0  0  0  0  0  0  0  0  0  0
    4.8557    0.2719    2.0188 C   0  0  0  0  0  0  0  0  0  0  0  0
    4.7300    0.7711    0.6858 O   0  0  0  0  0  0  0  0  0  0  0  0
    5.7908    0.3746   -0.1858 C   0  0  0  0  0  0  0  0  0  0  0  0
    1.1854    1.5428    4.3272 S   0  0  0  0  0  1  0  0  0  0  0  0
   -1.1739    0.2052    3.0576 C   0  0  0  0  0  0  0  0  0  0  0  0
   -1.2223    1.0253    3.9587 O   0  0  0  0  0  0  0  0  0  0  0  0
   -2.4091   -0.4742    2.6086 C   0  0  0  0  0  0  0  0  0  0  0  0
   -3.4241   -0.7589    3.5234 C   0  0  0  0  0  0  0  0  0  0  0  0
   -4.5733   -1.3925    3.0992 C   0  0  0  0  0  0  0  0  0  0  0  0
   -4.7211   -1.7466    1.7684 C   0  0  0  0  0  0  0  0  0  0  0  0
   -3.7170   -1.4671    0.8562 C   0  0  0  0  0  0  0  0  0  0  0  0
   -2.5663   -0.8279    1.2677 C   0  0  0  0  0  0  0  0  0  0  0  0
   -6.1701   -2.5444    1.2418 Cl  0  0  0  0  0  0  0  0  0  0  0  0
   -0.2288   -4.4492    0.6638 O   0  5  0  0  0  0  0  0  0  0  0  0
    1.5700    1.2921    0.0854 H   0  0  0  0  0  0  0  0  0  0  0  0
    0.1521    1.3653   -0.9881 H   0  0  0  0  0  0  0  0  0  0  0  0
   -0.0489    1.5786    0.7676 H   0  0  0  0  0  0  0  0  0  0  0  0
    0.5463   -0.8276   -1.9387 H   0  0  0  0  0  0  0  0  0  0  0  0
    0.2207   -3.2747   -1.6623 H   0  0  0  0  0  0  0  0  0  0  0  0
   -0.2628   -2.6196    2.5369 H   0  0  0  0  0  0  0  0  0  0  0  0
    2.4616   -0.4247    1.5748 H   0  0  0  0  0  0  0  0  0  0  0  0
    3.6096    1.8432    2.8055 H   0  0  0  0  0  0  0  0  0  0  0  0
    3.8127    0.4506    3.8953 H   0  0  0  0  0  0  0  0  0  0  0  0
    5.7851    0.6358    2.4570 H   0  0  0  0  0  0  0  0  0  0  0  0
    4.8655   -0.8179    1.9993 H   0  0  0  0  0  0  0  0  0  0  0  0
    5.6219    0.7937   -1.1777 H   0  0  0  0  0  0  0  0  0  0  0  0
    6.7395    0.7406    0.2066 H   0  0  0  0  0  0  0  0  0  0  0  0
    5.8200   -0.7131   -0.2511 H   0  0  0  0  0  0  0  0  0  0  0  0
   -3.3096   -0.4838    4.5615 H   0  0  0  0  0  0  0  0  0  0  0  0
   -5.3593   -1.6132    3.8062 H   0  0  0  0  0  0  0  0  0  0  0  0
   -3.8376   -1.7459   -0.1802 H   0  0  0  0  0  0  0  0  0  0  0  0
   -1.7862   -0.6058    0.5545 H   0  0  0  0  0  0  0  0  0  0  0  0
  1  2  1  0  0  0  0
  1 26  1  0  0  0  0
  1 27  1  0  0  0  0
  1 28  1  0  0  0  0
  2  7  1  0  0  0  0
  2  3  1  0  0  0  0
  3  4  2  0  0  0  0
  3 29  1  0  0  0  0
  4  5  1  0  0  0  0
  4 30  1  0  0  0  0
  5  6  2  0  0  0  0
  5 25  1  0  0  0  0
  6  7  1  0  0  0  0
  6 31  1  0  0  0  0
  7  8  1  0  0  0  0
  8  9  2  0  0  0  0
  8 16  1  0  0  0  0
  9 10  1  0  0  0  0
  9 15  1  0  0  0  0
 10 11  1  0  0  0  0
 10 32  1  0  0  0  0
 11 12  1  0  0  0  0
 11 33  1  0  0  0  0
 11 34  1  0  0  0  0
 12 13  1  0  0  0  0
 12 35  1  0  0  0  0
 12 36  1  0  0  0  0
 13 14  1  0  0  0  0
 14 37  1  0  0  0  0
 14 38  1  0  0  0  0
 14 39  1  0  0  0  0
 16 17  2  0  0  0  0
 16 18  1  0  0  0  0
 18 23  2  0  0  0  0
 18 19  1  0  0  0  0
 19 20  2  0  0  0  0
 19 40  1  0  0  0  0
 20 21  1  0  0  0  0
 20 41  1  0  0  0  0
 21 22  2  0  0  0  0
 21 24  1  0  0  0  0
 22 23  1  0  0  0  0
 22 42  1  0  0  0  0
 23 43  1  0  0  0  0
M  CHG  1  25  -1
M  END
$$$$
ZINC66506206
 OpenBabel01252620473D

 44 45  0  0  1  0  0  0  0  0999 V2000
   -0.1557   -1.7266   -2.1315 C   0  0  0  0  0  0  0  0  0  0  0  0
    0.6590   -2.0441   -0.8760 C   0  0  1  0  0  0  0  0  0  0  0  0
    0.6302   -3.1169   -0.6849 H   0  0  0  0  0  0  0  0  0  0  0  0
    2.1115   -1.5996   -1.0822 C   0  0  0  0  0  0  0  0  0  0  0  0
    2.1417   -0.1300   -1.1519 N   0  0  0  0  0  0  0  0  0  0  0  0
    1.4647    0.6269   -0.0870 C   0  0  0  0  0  0  0  0  0  0  0  0
    0.0437    0.0739    0.0707 C   0  0  1  0  0  0  0  0  0  0  0  0
   -0.5390    0.3078   -0.8203 H   0  0  0  0  0  0  0  0  0  0  0  0
    0.1059   -1.3450    0.2416 O   0  0  0  0  0  0  0  0  0  0  0  0
   -0.6185    0.7082    1.2955 C   0  0  0  0  0  0  0  0  0  0  0  0
    2.7767    0.5093   -2.1697 C   0  0  0  0  0  0  0  0  0  0  0  0
    2.1341    0.7286   -3.3314 O   0  5  0  0  0  0  0  0  0  0  0  0
    4.0975    0.9392   -2.0093 C   0  0  0  0  0  0  0  0  0  0  0  0
    4.8185    0.6080   -0.8173 C   0  0  0  0  0  0  0  0  0  0  0  0
    5.3906    0.3453    0.1284 N   0  0  0  0  0  0  0  0  0  0  0  0
    4.7189    1.6982   -3.0206 C   0  0  0  0  0  0  0  0  0  0  0  0
    4.1071    1.9792   -4.0321 O   0  0  0  0  0  0  0  0  0  0  0  0
    6.1425    2.1615   -2.8478 C   0  0  0  0  0  0  0  0  0  0  0  0
    6.5723    2.9595   -4.0805 C   0  0  0  0  0  0  0  0  0  0  0  0
    7.9958    3.4228   -3.9077 C   0  0  0  0  0  0  0  0  0  0  0  0
    8.2560    4.6827   -3.4025 C   0  0  0  0  0  0  0  0  0  0  0  0
    9.5637    5.1080   -3.2434 C   0  0  0  0  0  0  0  0  0  0  0  0
   10.6110    4.2713   -3.5903 C   0  0  0  0  0  0  0  0  0  0  0  0
   10.3509    3.0119   -4.0953 C   0  0  0  0  0  0  0  0  0  0  0  0
    9.0429    2.5844   -4.2496 C   0  0  0  0  0  0  0  0  0  0  0  0
    8.7886    1.3509   -4.7386 F   0  0  0  0  0  0  0  0  0  0  0  0
    9.8180    6.3397   -2.7500 F   0  0  0  0  0  0  0  0  0  0  0  0
   -0.1265   -0.6538   -2.3219 H   0  0  0  0  0  0  0  0  0  0  0  0
    0.2676   -2.2585   -2.9835 H   0  0  0  0  0  0  0  0  0  0  0  0
   -1.1888   -2.0413   -1.9835 H   0  0  0  0  0  0  0  0  0  0  0  0
    2.7219   -1.9401   -0.2458 H   0  0  0  0  0  0  0  0  0  0  0  0
    2.4954   -2.0192   -2.0121 H   0  0  0  0  0  0  0  0  0  0  0  0
    2.0099    0.5106    0.8496 H   0  0  0  0  0  0  0  0  0  0  0  0
    1.4201    1.6818   -0.3579 H   0  0  0  0  0  0  0  0  0  0  0  0
   -0.6622    1.7896    1.1657 H   0  0  0  0  0  0  0  0  0  0  0  0
   -1.6288    0.3146    1.4070 H   0  0  0  0  0  0  0  0  0  0  0  0
   -0.0363    0.4724    2.1863 H   0  0  0  0  0  0  0  0  0  0  0  0
    6.2140    2.7935   -1.9627 H   0  0  0  0  0  0  0  0  0  0  0  0
    6.7945    1.2960   -2.7299 H   0  0  0  0  0  0  0  0  0  0  0  0
    6.5008    2.3275   -4.9656 H   0  0  0  0  0  0  0  0  0  0  0  0
    5.9203    3.8250   -4.1984 H   0  0  0  0  0  0  0  0  0  0  0  0
    7.4392    5.3354   -3.1323 H   0  0  0  0  0  0  0  0  0  0  0  0
   11.6313    4.6033   -3.4664 H   0  0  0  0  0  0  0  0  0  0  0  0
   11.1678    2.3594   -4.3662 H   0  0  0  0  0  0  0  0  0  0  0  0
  1  2  1  0  0  0  0
  1 28  1  0  0  0  0
  1 29  1  0  0  0  0
  1 30  1  0  0  0  0
  2  3  1  1  0  0  0
  2  9  1  0  0  0  0
  2  4  1  0  0  0  0
  4  5  1  0  0  0  0
  4 31  1  0  0  0  0
  4 32  1  0  0  0  0
  5  6  1  0  0  0  0
  5 11  1  0  0  0  0
  6  7  1  0  0  0  0
  6 33  1  0  0  0  0
  6 34  1  0  0  0  0
  7  8  1  6  0  0  0
  7  9  1  0  0  0  0
  7 10  1  0  0  0  0
 10 35  1  0  0  0  0
 10 36  1  0  0  0  0
 10 37  1  0  0  0  0
 11 12  1  0  0  0  0
 11 13  2  0  0  0  0
 13 14  1  0  0  0  0
 13 16  1  0  0  0  0
 14 15  3  0  0  0  0
 16 17  2  0  0  0  0
 16 18  1  0  0  0  0
 18 19  1  0  0  0  0
 18 38  1  0  0  0  0
 18 39  1  0  0  0  0
 19 20  1  0  0  0  0
 19 40  1  0  0  0  0
 19 41  1  0  0  0  0
 20 25  2  0  0  0  0
 20 21  1  0  0  0  0
 21 22  2  0  0  0  0
 21 42  1  0  0  0  0
 22 23  1  0  0  0  0
 22 27  1  0  0  0  0
 23 24  2  0  0  0  0
 23 43  1  0  0  0  0
 24 25  1  0  0  0  0
 24 44  1  0  0  0  0
 25 26  1  0  0  0  0
M  CHG  1  12  -1
M  END
$$$$
ZINC12296195
 OpenBabel01252620473D

 74 76  0  0  1  0  0  0  0  0999 V2000
    0.8404    2.6647    3.2642 C   0  0  0  0  0  0  0  0  0  0  0  0
    0.5334    1.2359    2.8112 C   0  0  0  0  0  0  0  0  0  0  0  0
   -0.8618    1.1881    2.1851 C   0  0  1  0  0  0  0  0  0  0  0  0
   -1.2142   -0.2590    1.8346 C   0  0  0  0  0  0  0  0  0  0  0  0
   -1.0569   -1.1376    3.0772 C   0  0  0  0  0  0  0  0  0  0  0  0
   -2.6612   -0.3265    1.3421 C   0  0  0  0  0  0  0  0  0  0  0  0
   -1.8712    1.7275    3.1656 C   0  0  0  0  0  0  0  0  0  0  0  0
   -2.6351    2.6066    2.8275 O   0  0  0  0  0  0  0  0  0  0  0  0
   -1.9248    1.2329    4.4182 N   0  0  0  0  0  0  0  0  0  0  0  0
   -2.9758    1.6775    5.3369 C   0  0  2  0  0  0  0  0  0  0  0  0
   -3.3840    2.6537    5.0751 H   0  0  0  0  0  0  0  0  0  0  0  0
   -2.6003    1.5428    6.8139 C   0  0  1  0  0  0  0  0  0  0  0  0
   -2.8298    2.4012    7.4452 H   0  0  0  0  0  0  0  0  0  0  0  0
   -3.5461    0.4023    6.8717 N   0  0  0  0  0  0  0  0  0  0  0  0
   -4.0309    0.6263    5.6109 C   0  0  0  0  0  0  0  0  0  0  0  0
   -4.9478    0.1637    4.9657 O   0  0  0  0  0  0  0  0  0  0  0  0
   -2.9434   -0.9142    7.1012 C   0  0  1  0  0  0  0  0  0  0  0  0
   -2.7624   -1.3946    6.1396 H   0  0  0  0  0  0  0  0  0  0  0  0
   -1.5985   -0.8060    7.8717 C   0  0  0  0  0  0  0  0  0  0  0  0
   -0.9522    0.7829    7.1038 S   0  0  0  0  0  0  0  0  0  0  0  0
   -1.8238   -0.6417    9.3760 C   0  0  0  0  0  0  0  0  0  0  0  0
   -0.6816   -1.9936    7.5721 C   0  0  0  0  0  0  0  0  0  0  0  0
   -3.9007   -1.7604    7.9002 C   0  0  0  0  0  0  0  0  0  0  0  0
   -4.7966   -1.2377    8.5198 O   0  0  0  0  0  0  0  0  0  0  0  0
   -0.8788    1.9834    0.9980 O   0  0  0  0  0  0  0  0  0  0  0  0
    0.0848    1.5879    0.0196 C   0  0  2  0  0  0  0  0  0  0  0  0
    0.3038    0.5263    0.1338 H   0  0  0  0  0  0  0  0  0  0  0  0
    1.3689    2.3972    0.2123 C   0  0  0  0  0  0  0  0  0  0  0  0
    1.0614    3.8874    0.0521 C   0  0  2  0  0  0  0  0  0  0  0  0
    0.3264    4.1890    0.7983 H   0  0  0  0  0  0  0  0  0  0  0  0
    0.5016    4.1450   -1.3483 C   0  0  0  0  0  0  0  0  0  0  0  0
   -0.7825    3.3357   -1.5410 C   0  0  0  0  0  0  0  0  0  0  0  0
   -0.4751    1.8455   -1.3808 C   0  0  2  0  0  0  0  0  0  0  0  0
    0.2599    1.5439   -2.1270 H   0  0  0  0  0  0  0  0  0  0  0  0
   -1.7592    1.0362   -1.5734 C   0  0  0  0  0  0  0  0  0  0  0  0
   -2.3834    1.3846   -2.9261 C   0  0  0  0  0  0  0  0  0  0  0  0
   -1.4315   -0.4577   -1.5326 C   0  0  0  0  0  0  0  0  0  0  0  0
    2.3455    4.6967    0.2447 C   0  0  0  0  0  0  0  0  0  0  0  0
    0.1008    2.9792    4.0005 H   0  0  0  0  0  0  0  0  0  0  0  0
    1.8344    2.6987    3.7102 H   0  0  0  0  0  0  0  0  0  0  0  0
    0.8047    3.3339    2.4046 H   0  0  0  0  0  0  0  0  0  0  0  0
    0.5690    0.5666    3.6707 H   0  0  0  0  0  0  0  0  0  0  0  0
    1.2730    0.9213    2.0748 H   0  0  0  0  0  0  0  0  0  0  0  0
   -0.5465   -0.6158    1.0504 H   0  0  0  0  0  0  0  0  0  0  0  0
   -1.2120   -2.1818    2.8059 H   0  0  0  0  0  0  0  0  0  0  0  0
   -0.0538   -1.0134    3.4854 H   0  0  0  0  0  0  0  0  0  0  0  0
   -1.7927   -0.8434    3.8257 H   0  0  0  0  0  0  0  0  0  0  0  0
   -2.7599    0.2523    0.4238 H   0  0  0  0  0  0  0  0  0  0  0  0
   -2.9308   -1.3647    1.1479 H   0  0  0  0  0  0  0  0  0  0  0  0
   -3.3238    0.0846    2.1037 H   0  0  0  0  0  0  0  0  0  0  0  0
   -1.2676    0.5825    4.7114 H   0  0  0  0  0  0  0  0  0  0  0  0
   -2.3709   -1.5037    9.7578 H   0  0  0  0  0  0  0  0  0  0  0  0
   -0.8610   -0.5693    9.8818 H   0  0  0  0  0  0  0  0  0  0  0  0
   -2.4001    0.2650    9.5602 H   0  0  0  0  0  0  0  0  0  0  0  0
   -0.4650   -2.0251    6.5043 H   0  0  0  0  0  0  0  0  0  0  0  0
    0.2492   -1.8833    8.1286 H   0  0  0  0  0  0  0  0  0  0  0  0
   -1.1756   -2.9183    7.8702 H   0  0  0  0  0  0  0  0  0  0  0  0
    1.7677    2.2137    1.2100 H   0  0  0  0  0  0  0  0  0  0  0  0
    2.1039    2.0956   -0.5340 H   0  0  0  0  0  0  0  0  0  0  0  0
    0.2825    5.2066   -1.4625 H   0  0  0  0  0  0  0  0  0  0  0  0
    1.2365    3.8433   -2.0946 H   0  0  0  0  0  0  0  0  0  0  0  0
   -1.5175    3.6373   -0.7947 H   0  0  0  0  0  0  0  0  0  0  0  0
   -1.1814    3.5192   -2.5387 H   0  0  0  0  0  0  0  0  0  0  0  0
   -2.4627    1.2758   -0.7761 H   0  0  0  0  0  0  0  0  0  0  0  0
   -1.6799    1.1450   -3.7235 H   0  0  0  0  0  0  0  0  0  0  0  0
   -3.2982    0.8081   -3.0634 H   0  0  0  0  0  0  0  0  0  0  0  0
   -2.6169    2.4489   -2.9553 H   0  0  0  0  0  0  0  0  0  0  0  0
   -0.7279   -0.6973   -2.3299 H   0  0  0  0  0  0  0  0  0  0  0  0
   -0.9867   -0.7059   -0.5689 H   0  0  0  0  0  0  0  0  0  0  0  0
   -2.3463   -1.0342   -1.6698 H   0  0  0  0  0  0  0  0  0  0  0  0
    3.0805    4.3950   -0.5015 H   0  0  0  0  0  0  0  0  0  0  0  0
    2.1265    5.7583    0.1306 H   0  0  0  0  0  0  0  0  0  0  0  0
    2.7444    4.5132    1.2424 H   0  0  0  0  0  0  0  0  0  0  0  0
   -3.7580   -3.0949    7.9235 O   0  0  0  0  0  1  0  0  0  0  0  0
  1  2  1  0  0  0  0
  1 39  1  0  0  0  0
  1 40  1  0  0  0  0
  1 41  1  0  0  0  0
  2  3  1  0  0  0  0
  2 42  1  0  0  0  0
  2 43  1  0  0  0  0
  3  4  1  0  0  0  0
  3  7  1  1  0  0  0
  3 25  1  0  0  0  0
  4  5  1  0  0  0  0
  4  6  1  0  0  0  0
  4 44  1  0  0  0  0
  5 45  1  0  0  0  0
  5 46  1  0  0  0  0
  5 47  1  0  0  0  0
  6 48  1  0  0  0  0
  6 49  1  0  0  0  0
  6 50  1  0  0  0  0
  7  8  2  0  0  0  0
  7  9  1  0  0  0  0
  9 10  1  0  0  0  0
  9 51  1  0  0  0  0
 10 11  1  6  0  0  0
 10 15  1  0  0  0  0
 10 12  1  0  0  0  0
 12 13  1  1  0  0  0
 12 20  1  0  0  0  0
 12 14  1  0  0  0  0
 14 15  1  0  0  0  0
 14 17  1  0  0  0  0
 15 16  2  0  0  0  0
 17 18  1  6  0  0  0
 17 19  1  0  0  0  0
 17 23  1  0  0  0  0
 19 20  1  0  0  0  0
 19 21  1  0  0  0  0
 19 22  1  0  0  0  0
 21 52  1  0  0  0  0
 21 53  1  0  0  0  0
 21 54  1  0  0  0  0
 22 55  1  0  0  0  0
 22 56  1  0  0  0  0
 22 57  1  0  0  0  0
 23 24  2  0  0  0  0
 23 74  1  0  0  0  0
 25 26  1  0  0  0  0
 26 27  1  1  0  0  0
 26 33  1  0  0  0  0
 26 28  1  0  0  0  0
 28 29  1  0  0  0  0
 28 58  1  0  0  0  0
 28 59  1  0  0  0  0
 29 30  1  1  0  0  0
 29 31  1  0  0  0  0
 29 38  1  0  0  0  0
 31 32  1  0  0  0  0
 31 60  1  0  0  0  0
 31 61  1  0  0  0  0
 32 33  1  0  0  0  0
 32 62  1  0  0  0  0
 32 63  1  0  0  0  0
 33 34  1  6  0  0  0
 33 35  1  0  0  0  0
 35 36  1  0  0  0  0
 35 37  1  0  0  0  0
 35 64  1  0  0  0  0
 36 65  1  0  0  0  0
 36 66  1  0  0  0  0
 36 67  1  0  0  0  0
 37 68  1  0  0  0  0
 37 69  1  0  0  0  0
 37 70  1  0  0  0  0
 38 71  1  0  0  0  0
 38 72  1  0  0  0  0
 38 73  1  0  0  0  0
M  END
$$$$
ZINC15821894
 OpenBabel01252620473D

 48 50  0  0  1  0  0  0  0  0999 V2000
   -4.9592    4.1466    0.3405 C   0  0  0  0  0  0  0  0  0  0  0  0
   -3.6346    3.4937    0.0403 C   0  0  0  0  0  0  0  0  0  0  0  0
   -3.1898    3.4039   -1.2661 C   0  0  0  0  0  0  0  0  0  0  0  0
   -1.9764    2.8060   -1.5444 C   0  0  0  0  0  0  0  0  0  0  0  0
   -1.2027    2.2948   -0.5108 C   0  0  0  0  0  0  0  0  0  0  0  0
   -1.6545    2.3814    0.7989 C   0  0  0  0  0  0  0  0  0  0  0  0
   -2.8667    2.9852    1.0715 C   0  0  0  0  0  0  0  0  0  0  0  0
   -3.3553    3.0847    2.4936 C   0  0  0  0  0  0  0  0  0  0  0  0
    0.0291    1.6877   -0.7900 N   0  0  0  0  0  0  0  0  0  0  0  0
    1.1644    2.2678   -0.3490 C   0  0  0  0  0  0  0  0  0  0  0  0
    1.1303    3.3033    0.2882 O   0  0  0  0  0  0  0  0  0  0  0  0
    2.4491    1.6114   -0.6612 C   0  0  0  0  0  0  0  0  0  0  0  0
    3.6528    2.1454   -0.2428 C   0  0  0  0  0  0  0  0  0  0  0  0
    4.8812    1.3601   -0.3593 C   0  0  0  0  0  0  0  0  0  0  0  0
    4.8953    0.0119    0.0303 C   0  0  0  0  0  0  0  0  0  0  0  0
    6.0438   -0.7174   -0.0864 C   0  0  0  0  0  0  0  0  0  0  0  0
    7.2016   -0.1235   -0.5798 C   0  0  0  0  0  0  0  0  0  0  0  0
    7.1959    1.2146   -0.9619 C   0  0  0  0  0  0  0  0  0  0  0  0
    6.0523    1.9532   -0.8556 C   0  0  0  0  0  0  0  0  0  0  0  0
    8.3407   -0.8519   -0.6883 O   0  0  0  0  0  0  0  0  0  0  0  0
    9.4536   -0.2243   -1.3281 C   0  0  1  0  0  0  0  0  0  0  0  0
    9.0310    0.5189   -2.0203 H   0  0  0  0  0  0  0  0  0  0  0  0
   10.3467    0.4298   -0.2720 C   0  0  0  0  0  0  0  0  0  0  0  0
   10.2462   -1.2582   -2.0857 C   0  0  0  0  0  0  0  0  0  0  0  0
    9.8940   -2.4140   -2.0784 O   0  0  0  0  0  0  0  0  0  0  0  0
   11.3433   -0.8951   -2.7685 O   0  0  0  0  0  1  0  0  0  0  0  0
    2.3906    0.3584   -1.4401 C   0  0  0  0  0  0  0  0  0  0  0  0
    3.4065   -0.2413   -1.7363 O   0  5  0  0  0  0  0  0  0  0  0  0
    1.1793   -0.1031   -1.8138 N   0  0  0  0  0  0  0  0  0  0  0  0
    0.0520    0.5471   -1.4935 C   0  0  0  0  0  0  0  0  0  0  0  0
   -1.0068    0.0768   -1.8604 O   0  0  0  0  0  0  0  0  0  0  0  0
   -5.4213    4.4869   -0.5979 H   0  0  0  0  0  0  0  0  0  0  0  0
   -4.8007    5.0088    1.0049 H   0  0  0  0  0  0  0  0  0  0  0  0
   -5.6224    3.4206    0.8336 H   0  0  0  0  0  0  0  0  0  0  0  0
   -3.7919    3.8020   -2.0695 H   0  0  0  0  0  0  0  0  0  0  0  0
   -1.6298    2.7359   -2.5648 H   0  0  0  0  0  0  0  0  0  0  0  0
   -1.0570    1.9807    1.6044 H   0  0  0  0  0  0  0  0  0  0  0  0
   -2.6154    2.6292    3.1682 H   0  0  0  0  0  0  0  0  0  0  0  0
   -4.3144    2.5547    2.5897 H   0  0  0  0  0  0  0  0  0  0  0  0
   -3.4927    4.1429    2.7609 H   0  0  0  0  0  0  0  0  0  0  0  0
    3.6873    3.1612    0.1779 H   0  0  0  0  0  0  0  0  0  0  0  0
    3.9985   -0.4489    0.4175 H   0  0  0  0  0  0  0  0  0  0  0  0
    6.0548   -1.7561    0.2092 H   0  0  0  0  0  0  0  0  0  0  0  0
    8.0978    1.6698   -1.3438 H   0  0  0  0  0  0  0  0  0  0  0  0
    6.0489    2.9914   -1.1532 H   0  0  0  0  0  0  0  0  0  0  0  0
   11.2034    0.9129   -0.7646 H   0  0  0  0  0  0  0  0  0  0  0  0
   10.7106   -0.3378    0.4269 H   0  0  0  0  0  0  0  0  0  0  0  0
    9.7682    1.1845    0.2809 H   0  0  0  0  0  0  0  0  0  0  0  0
  1  2  1  0  0  0  0
  1 32  1  0  0  0  0
  1 33  1  0  0  0  0
  1 34  1  0  0  0  0
  2  7  2  0  0  0  0
  2  3  1  0  0  0  0
  3  4  2  0  0  0  0
  3 35  1  0  0  0  0
  4  5  1  0  0  0  0
  4 36  1  0  0  0  0
  5  6  2  0  0  0  0
  5  9  1  0  0  0  0
  6  7  1  0  0  0  0
  6 37  1  0  0  0  0
  7  8  1  0  0  0  0
  8 38  1  0  0  0  0
  8 39  1  0  0  0  0
  8 40  1  0  0  0  0
  9 30  1  0  0  0  0
  9 10  1  0  0  0  0
 10 11  2  0  0  0  0
 10 12  1  0  0  0  0
 12 13  2  0  0  0  0
 12 27  1  0  0  0  0
 13 14  1  0  0  0  0
 13 41  1  0  0  0  0
 14 19  2  0  0  0  0
 14 15  1  0  0  0  0
 15 16  2  0  0  0  0
 15 42  1  0  0  0  0
 16 17  1  0  0  0  0
 16 43  1  0  0  0  0
 17 18  2  0  0  0  0
 17 20  1  0  0  0  0
 18 19  1  0  0  0  0
 18 44  1  0  0  0  0
 19 45  1  0  0  0  0
 20 21  1  0  0  0  0
 21 22  1  6  0  0  0
 21 23  1  0  0  0  0
 21 24  1  0  0  0  0
 23 46  1  0  0  0  0
 23 47  1  0  0  0  0
 23 48  1  0  0  0  0
 24 25  2  0  0  0  0
 24 26  1  0  0  0  0
 27 28  1  0  0  0  0
 27 29  2  0  0  0  0
 29 30  1  0  0  0  0
 30 31  2  0  0  0  0
M  CHG  1  28  -1
M  END
$$$$
ZINC13801021
 OpenBabel01252620473D

 49 51  0  0  0  0  0  0  0  0999 V2000
    0.3592    0.1854    1.6757 C   0  0  0  0  0  0  0  0  0  0  0  0
   -0.0537   -0.0228    0.2172 C   0  0  0  0  0  0  0  0  0  0  0  0
   -1.4278   -0.6394    0.1673 C   0  0  0  0  0  0  0  0  0  0  0  0
   -1.5672   -2.0152    0.1676 C   0  0  0  0  0  0  0  0  0  0  0  0
   -2.8253   -2.5833    0.1224 C   0  0  0  0  0  0  0  0  0  0  0  0
   -3.9508   -1.7715    0.0766 C   0  0  0  0  0  0  0  0  0  0  0  0
   -3.8076   -0.3904    0.0764 C   0  0  0  0  0  0  0  0  0  0  0  0
   -2.5470    0.1717    0.1271 C   0  0  0  0  0  0  0  0  0  0  0  0
   -5.2285   -2.3448    0.0302 N   0  0  0  0  0  0  0  0  0  0  0  0
   -5.9642   -2.2369   -1.0970 C   0  0  0  0  0  0  0  0  0  0  0  0
   -5.5363   -1.6502   -2.0734 O   0  0  0  0  0  0  0  0  0  0  0  0
   -7.3048   -2.8552   -1.1052 C   0  0  0  0  0  0  0  0  0  0  0  0
   -8.1249   -2.7917   -2.2206 C   0  0  0  0  0  0  0  0  0  0  0  0
   -9.5247   -3.1989   -2.1222 C   0  0  0  0  0  0  0  0  0  0  0  0
  -10.3193   -2.7392   -1.0600 C   0  0  0  0  0  0  0  0  0  0  0  0
  -11.6271   -3.1208   -0.9690 C   0  0  0  0  0  0  0  0  0  0  0  0
  -12.1804   -3.9652   -1.9249 C   0  0  0  0  0  0  0  0  0  0  0  0
  -11.4026   -4.4305   -2.9873 C   0  0  0  0  0  0  0  0  0  0  0  0
  -10.0821   -4.0468   -3.0930 C   0  0  0  0  0  0  0  0  0  0  0  0
  -11.9481   -5.2570   -3.9194 O   0  0  0  0  0  0  0  0  0  0  0  0
  -11.0938   -5.6940   -4.9783 C   0  0  0  0  0  0  0  0  0  0  0  0
  -13.4811   -4.3388   -1.8251 O   0  0  0  0  0  0  0  0  0  0  0  0
  -14.2196   -3.8271   -0.7139 C   0  0  0  0  0  0  0  0  0  0  0  0
  -15.6335   -4.3456   -0.7689 C   0  0  0  0  0  0  0  0  0  0  0  0
  -15.9770   -5.0848   -1.6756 O   0  0  0  0  0  0  0  0  0  0  0  0
  -16.4340   -4.0259    0.0934 O   0  0  0  0  0  1  0  0  0  0  0  0
   -7.7305   -3.5422    0.1243 C   0  0  0  0  0  0  0  0  0  0  0  0
   -8.9409   -4.1343    0.2006 O   0  5  0  0  0  0  0  0  0  0  0  0
   -6.8998   -3.5665    1.1524 N   0  0  0  0  0  0  0  0  0  0  0  0
   -5.6983   -2.9963    1.1040 C   0  0  0  0  0  0  0  0  0  0  0  0
   -4.9882   -3.0656    2.0913 O   0  0  0  0  0  0  0  0  0  0  0  0
    1.3532    0.6314    1.7118 H   0  0  0  0  0  0  0  0  0  0  0  0
   -0.3546    0.8486    2.1642 H   0  0  0  0  0  0  0  0  0  0  0  0
    0.3733   -0.7755    2.1900 H   0  0  0  0  0  0  0  0  0  0  0  0
   -0.0677    0.9381   -0.2972 H   0  0  0  0  0  0  0  0  0  0  0  0
    0.6601   -0.6861   -0.2713 H   0  0  0  0  0  0  0  0  0  0  0  0
   -0.6914   -2.6461    0.2029 H   0  0  0  0  0  0  0  0  0  0  0  0
   -2.9336   -3.6578    0.1223 H   0  0  0  0  0  0  0  0  0  0  0  0
   -4.6812    0.2436    0.0408 H   0  0  0  0  0  0  0  0  0  0  0  0
   -2.4352    1.2459    0.1315 H   0  0  0  0  0  0  0  0  0  0  0  0
   -7.7293   -2.4414   -3.1625 H   0  0  0  0  0  0  0  0  0  0  0  0
   -9.8955   -2.0834   -0.3138 H   0  0  0  0  0  0  0  0  0  0  0  0
  -12.2348   -2.7653   -0.1500 H   0  0  0  0  0  0  0  0  0  0  0  0
   -9.4783   -4.4005   -3.9157 H   0  0  0  0  0  0  0  0  0  0  0  0
  -10.2484   -6.2409   -4.5609 H   0  0  0  0  0  0  0  0  0  0  0  0
  -11.6523   -6.3459   -5.6501 H   0  0  0  0  0  0  0  0  0  0  0  0
  -10.7293   -4.8285   -5.5317 H   0  0  0  0  0  0  0  0  0  0  0  0
  -13.7497   -4.1510    0.2148 H   0  0  0  0  0  0  0  0  0  0  0  0
  -14.2301   -2.7380   -0.7552 H   0  0  0  0  0  0  0  0  0  0  0  0
  1  2  1  0  0  0  0
  1 32  1  0  0  0  0
  1 33  1  0  0  0  0
  1 34  1  0  0  0  0
  2  3  1  0  0  0  0
  2 35  1  0  0  0  0
  2 36  1  0  0  0  0
  3  8  2  0  0  0  0
  3  4  1  0  0  0  0
  4  5  2  0  0  0  0
  4 37  1  0  0  0  0
  5  6  1  0  0  0  0
  5 38  1  0  0  0  0
  6  7  2  0  0  0  0
  6  9  1  0  0  0  0
  7  8  1  0  0  0  0
  7 39  1  0  0  0  0
  8 40  1  0  0  0  0
  9 30  1  0  0  0  0
  9 10  1  0  0  0  0
 10 11  2  0  0  0  0
 10 12  1  0  0  0  0
 12 13  2  0  0  0  0
 12 27  1  0  0  0  0
 13 14  1  0  0  0  0
 13 41  1  0  0  0  0
 14 19  2  0  0  0  0
 14 15  1  0  0  0  0
 15 16  2  0  0  0  0
 15 42  1  0  0  0  0
 16 17  1  0  0  0  0
 16 43  1  0  0  0  0
 17 18  2  0  0  0  0
 17 22  1  0  0  0  0
 18 19  1  0  0  0  0
 18 20  1  0  0  0  0
 19 44  1  0  0  0  0
 20 21  1  0  0  0  0
 21 45  1  0  0  0  0
 21 46  1  0  0  0  0
 21 47  1  0  0  0  0
 22 23  1  0  0  0  0
 23 24  1  0  0  0  0
 23 48  1  0  0  0  0
 23 49  1  0  0  0  0
 24 25  2  0  0  0  0
 24 26  1  0  0  0  0
 27 28  1  0  0  0  0
 27 29  2  0  0  0  0
 29 30  1  0  0  0  0
 30 31  2  0  0  0  0
M  CHG  1  28  -1
M  END
$$$$
ZINC59151368
 OpenBabel01252620473D

 44 45  0  0  0  0  0  0  0  0999 V2000
   -0.1097    1.4183   -1.2956 C   0  0  0  0  0  0  0  0  0  0  0  0
   -0.0764   -0.0987   -1.0996 C   0  0  0  0  0  0  0  0  0  0  0  0
   -1.4100   -0.5883   -0.9447 O   0  0  0  0  0  0  0  0  0  0  0  0
   -1.5584   -1.9274   -0.7595 C   0  0  0  0  0  0  0  0  0  0  0  0
   -0.4459   -2.7476   -0.7225 C   0  0  0  0  0  0  0  0  0  0  0  0
   -0.6021   -4.1226   -0.5321 C   0  0  0  0  0  0  0  0  0  0  0  0
   -1.8816   -4.6623   -0.3802 C   0  0  0  0  0  0  0  0  0  0  0  0
   -2.9866   -3.8378   -0.4183 C   0  0  0  0  0  0  0  0  0  0  0  0
   -2.8308   -2.4718   -0.6016 C   0  0  0  0  0  0  0  0  0  0  0  0
   -3.9231   -1.6627   -0.6324 O   0  0  0  0  0  0  0  0  0  0  0  0
    0.5808   -5.0024   -0.4922 C   0  0  0  0  0  0  0  0  0  0  0  0
    0.4339   -6.2794   -0.3153 N   0  0  0  0  0  0  0  0  0  0  0  0
    1.5577   -7.1152   -0.2774 N   0  0  0  0  0  2  0  0  0  0  0  0
    1.3702   -8.7450   -0.0517 S   0  0  0  0  0  0  0  0  0  0  0  0
    0.8566   -8.9166    1.2621 O   0  0  0  0  0  0  0  0  0  0  0  0
    0.6994   -9.2398   -1.2025 O   0  0  0  0  0  0  0  0  0  0  0  0
    2.9802   -9.4607   -0.0605 C   0  0  0  0  0  0  0  0  0  0  0  0
    3.5373   -9.8913   -1.2506 C   0  0  0  0  0  0  0  0  0  0  0  0
    4.7991  -10.4528   -1.2609 C   0  0  0  0  0  0  0  0  0  0  0  0
    5.5087  -10.5843   -0.0744 C   0  0  0  0  0  0  0  0  0  0  0  0
    4.9466  -10.1505    1.1191 C   0  0  0  0  0  0  0  0  0  0  0  0
    3.6863   -9.5855    1.1219 C   0  0  0  0  0  0  0  0  0  0  0  0
    6.7870  -11.1532   -0.0813 N   0  0  0  0  0  0  0  0  0  0  0  0
    7.6002  -10.9703   -1.1404 C   0  0  0  0  0  0  0  0  0  0  0  0
    7.2628  -10.2354   -2.0444 O   0  0  0  0  0  0  0  0  0  0  0  0
    8.9288  -11.6790   -1.2016 C   0  0  0  0  0  0  0  0  0  0  0  0
    0.9075    1.7918   -1.4137 H   0  0  0  0  0  0  0  0  0  0  0  0
   -0.6902    1.6569   -2.1867 H   0  0  0  0  0  0  0  0  0  0  0  0
   -0.5701    1.8870   -0.4258 H   0  0  0  0  0  0  0  0  0  0  0  0
    0.3839   -0.5674   -1.9693 H   0  0  0  0  0  0  0  0  0  0  0  0
    0.5040   -0.3373   -0.2084 H   0  0  0  0  0  0  0  0  0  0  0  0
    0.5414   -2.3262   -0.8407 H   0  0  0  0  0  0  0  0  0  0  0  0
   -2.0055   -5.7251   -0.2333 H   0  0  0  0  0  0  0  0  0  0  0  0
   -3.9753   -4.2562   -0.3007 H   0  0  0  0  0  0  0  0  0  0  0  0
   -4.2988   -1.5425   -1.5153 H   0  0  0  0  0  0  0  0  0  0  0  0
    1.5694   -4.5838   -0.6102 H   0  0  0  0  0  0  0  0  0  0  0  0
    2.9850   -9.7888   -2.1730 H   0  0  0  0  0  0  0  0  0  0  0  0
    5.2334  -10.7896   -2.1906 H   0  0  0  0  0  0  0  0  0  0  0  0
    5.4957  -10.2517    2.0435 H   0  0  0  0  0  0  0  0  0  0  0  0
    3.2503   -9.2441    2.0492 H   0  0  0  0  0  0  0  0  0  0  0  0
    7.0880  -11.6791    0.6761 H   0  0  0  0  0  0  0  0  0  0  0  0
    8.8041  -12.6429   -1.6949 H   0  0  0  0  0  0  0  0  0  0  0  0
    9.6387  -11.0722   -1.7637 H   0  0  0  0  0  0  0  0  0  0  0  0
    9.3046  -11.8344   -0.1902 H   0  0  0  0  0  0  0  0  0  0  0  0
  1  2  1  0  0  0  0
  1 27  1  0  0  0  0
  1 28  1  0  0  0  0
  1 29  1  0  0  0  0
  2  3  1  0  0  0  0
  2 30  1  0  0  0  0
  2 31  1  0  0  0  0
  3  4  1  0  0  0  0
  4  9  2  0  0  0  0
  4  5  1  0  0  0  0
  5  6  2  0  0  0  0
  5 32  1  0  0  0  0
  6  7  1  0  0  0  0
  6 11  1  0  0  0  0
  7  8  2  0  0  0  0
  7 33  1  0  0  0  0
  8  9  1  0  0  0  0
  8 34  1  0  0  0  0
  9 10  1  0  0  0  0
 10 35  1  0  0  0  0
 11 12  2  0  0  0  0
 11 36  1  0  0  0  0
 12 13  1  0  0  0  0
 13 14  1  0  0  0  0
 14 15  2  0  0  0  0
 14 16  2  0  0  0  0
 14 17  1  0  0  0  0
 17 22  2  0  0  0  0
 17 18  1  0  0  0  0
 18 19  2  0  0  0  0
 18 37  1  0  0  0  0
 19 20  1  0  0  0  0
 19 38  1  0  0  0  0
 20 21  2  0  0  0  0
 20 23  1  0  0  0  0
 21 22  1  0  0  0  0
 21 39  1  0  0  0  0
 22 40  1  0  0  0  0
 23 24  1  0  0  0  0
 23 41  1  0  0  0  0
 24 25  2  0  0  0  0
 24 26  1  0  0  0  0
 26 42  1  0  0  0  0
 26 43  1  0  0  0  0
 26 44  1  0  0  0  0
M  END
$$$$
ZINC13078778
 OpenBabel01252620473D

 37 39  0  0  0  0  0  0  0  0999 V2000
   -0.0167    1.3781    0.0096 C   0  0  0  0  0  0  0  0  0  0  0  0
    0.0021   -0.0041    0.0020 C   0  0  0  0  0  0  0  0  0  0  0  0
    1.2084   -0.6789   -0.0132 C   0  0  0  0  0  0  0  0  0  0  0  0
    2.3960    0.0285   -0.0217 C   0  0  0  0  0  0  0  0  0  0  0  0
    2.3773    1.4107   -0.0145 C   0  0  0  0  0  0  0  0  0  0  0  0
    1.1709    2.0855    0.0021 C   0  0  0  0  0  0  0  0  0  0  0  0
    1.1505    3.5924    0.0099 C   0  0  0  0  0  0  0  0  0  0  0  0
    1.1571    4.0950    1.4550 C   0  0  0  0  0  0  0  0  0  0  0  0
    1.1367    5.6018    1.4628 C   0  0  0  0  0  0  0  0  0  0  0  0
    1.1187    6.2112    0.4196 O   0  0  0  0  0  0  0  0  0  0  0  0
    1.2323   -2.4407   -0.0223 S   0  0  0  0  0  0  0  0  0  0  0  0
    2.4884   -2.8326    0.5143 O   0  0  0  0  0  0  0  0  0  0  0  0
   -0.0019   -2.8665    0.5385 O   0  0  0  0  0  0  0  0  0  0  0  0
    1.2235   -2.9223   -1.6067 N   0  0  0  0  0  0  0  0  0  0  0  0
    2.2950   -2.6250   -2.4243 C   0  0  0  0  0  0  0  0  0  0  0  0
    2.4697   -2.9183   -3.6926 N   0  0  0  0  0  0  0  0  0  0  0  0
    3.5804   -2.5596   -4.3740 C   0  0  0  0  0  0  0  0  0  0  0  0
    3.8912   -2.8108   -5.7302 C   0  0  0  0  0  0  0  0  0  0  0  0
    5.0722   -2.3735   -6.2708 C   0  0  0  0  0  0  0  0  0  0  0  0
    6.0011   -1.6736   -5.5133 C   0  0  0  0  0  0  0  0  0  0  0  0
    5.7292   -1.4107   -4.1822 C   0  0  0  0  0  0  0  0  0  0  0  0
    4.5487   -1.8448   -3.6334 C   0  0  0  0  0  0  0  0  0  0  0  0
    3.7941   -1.7361   -2.0286 S   0  0  0  0  0  0  0  0  0  0  0  0
    7.6207   -1.0851   -6.2921 Br  0  0  0  0  0  0  0  0  0  0  0  0
   -0.9592    1.9054    0.0170 H   0  0  0  0  0  0  0  0  0  0  0  0
   -0.9258   -0.5567    0.0083 H   0  0  0  0  0  0  0  0  0  0  0  0
    3.3385   -0.4987   -0.0335 H   0  0  0  0  0  0  0  0  0  0  0  0
    3.3052    1.9634   -0.0205 H   0  0  0  0  0  0  0  0  0  0  0  0
    2.0306    3.9704   -0.5103 H   0  0  0  0  0  0  0  0  0  0  0  0
    0.2509    3.9462   -0.4937 H   0  0  0  0  0  0  0  0  0  0  0  0
    0.2770    3.7170    1.9752 H   0  0  0  0  0  0  0  0  0  0  0  0
    2.0567    3.7412    1.9586 H   0  0  0  0  0  0  0  0  0  0  0  0
    0.4653   -3.4134   -1.9601 H   0  0  0  0  0  0  0  0  0  0  0  0
    3.1900   -3.3531   -6.3470 H   0  0  0  0  0  0  0  0  0  0  0  0
    5.2850   -2.5784   -7.3097 H   0  0  0  0  0  0  0  0  0  0  0  0
    6.4414   -0.8670   -3.5792 H   0  0  0  0  0  0  0  0  0  0  0  0
    1.1385    6.2670    2.6287 O   0  0  0  0  0  1  0  0  0  0  0  0
  1  6  2  0  0  0  0
  1  2  1  0  0  0  0
  1 25  1  0  0  0  0
  2  3  2  0  0  0  0
  2 26  1  0  0  0  0
  3  4  1  0  0  0  0
  3 11  1  0  0  0  0
  4  5  2  0  0  0  0
  4 27  1  0  0  0  0
  5  6  1  0  0  0  0
  5 28  1  0  0  0  0
  6  7  1  0  0  0  0
  7  8  1  0  0  0  0
  7 29  1  0  0  0  0
  7 30  1  0  0  0  0
  8  9  1  0  0  0  0
  8 31  1  0  0  0  0
  8 32  1  0  0  0  0
  9 10  2  0  0  0  0
  9 37  1  0  0  0  0
 11 12  2  0  0  0  0
 11 13  2  0  0  0  0
 11 14  1  0  0  0  0
 14 15  1  0  0  0  0
 14 33  1  0  0  0  0
 15 23  1  0  0  0  0
 15 16  2  0  0  0  0
 16 17  1  0  0  0  0
 17 22  2  0  0  0  0
 17 18  1  0  0  0  0
 18 19  2  0  0  0  0
 18 34  1  0  0  0  0
 19 20  1  0  0  0  0
 19 35  1  0  0  0  0
 20 21  2  0  0  0  0
 20 24  1  0  0  0  0
 21 22  1  0  0  0  0
 21 36  1  0  0  0  0
 22 23  1  0  0  0  0
M  END
$$$$
ZINC51162367
 OpenBabel01252620473D

 46 46  0  0  0  0  0  0  0  0999 V2000
   -0.0187    1.5258    0.0104 C   0  0  0  0  0  0  0  0  0  0  0  0
    0.0021   -0.0041    0.0020 C   0  0  0  0  0  0  0  0  0  0  0  0
    0.8794   -0.6050    1.4716 S   0  0  0  0  0  0  0  0  0  0  0  0
    2.2585   -0.2725    1.3884 O   0  0  0  0  0  0  0  0  0  0  0  0
    0.1321   -0.3082    2.6432 O   0  0  0  0  0  0  0  0  0  0  0  0
    0.8317   -2.3615    1.3408 C   0  0  0  0  0  0  0  0  0  0  0  0
   -0.2208   -3.0674    1.8929 C   0  0  0  0  0  0  0  0  0  0  0  0
   -0.2582   -4.4454    1.7903 C   0  0  0  0  0  0  0  0  0  0  0  0
    0.7567   -5.1175    1.1351 C   0  0  0  0  0  0  0  0  0  0  0  0
    1.8087   -4.4115    0.5822 C   0  0  0  0  0  0  0  0  0  0  0  0
    1.8439   -3.0332    0.6811 C   0  0  0  0  0  0  0  0  0  0  0  0
    0.7096   -6.8741    1.0053 S   0  0  0  0  0  0  0  0  0  0  0  0
    2.0514   -7.3038    0.8206 O   0  0  0  0  0  0  0  0  0  0  0  0
   -0.0985   -7.3390    2.0777 O   0  0  0  0  0  0  0  0  0  0  0  0
   -0.1012   -7.2402   -0.3914 N   0  0  0  0  0  0  0  0  0  0  0  0
    0.4665   -6.8631   -1.6883 C   0  0  0  0  0  0  0  0  0  0  0  0
   -0.2573   -7.6223   -2.8021 C   0  0  0  0  0  0  0  0  0  0  0  0
    0.3355   -7.2284   -4.1564 C   0  0  0  0  0  0  0  0  0  0  0  0
   -0.3575   -7.9555   -5.2229 N   0  0  0  0  0  0  0  0  0  0  0  0
   -0.1950   -7.4691   -6.7975 S   0  0  0  0  0  0  0  0  0  0  0  0
   -1.0071   -8.3680   -7.5403 O   0  0  0  0  0  0  0  0  0  0  0  0
   -0.4841   -6.0780   -6.7790 O   0  0  0  0  0  0  0  0  0  0  0  0
    1.5554   -7.7384   -7.1902 C   0  0  0  0  0  0  0  0  0  0  0  0
    1.8239   -7.3188   -8.6368 C   0  0  0  0  0  0  0  0  0  0  0  0
    1.0039    1.9031    0.0027 H   0  0  0  0  0  0  0  0  0  0  0  0
   -0.5459    1.8868   -0.8726 H   0  0  0  0  0  0  0  0  0  0  0  0
   -0.5289    1.8773    0.9072 H   0  0  0  0  0  0  0  0  0  0  0  0
   -1.0205   -0.3814    0.0098 H   0  0  0  0  0  0  0  0  0  0  0  0
    0.5123   -0.3556   -0.8948 H   0  0  0  0  0  0  0  0  0  0  0  0
   -1.0136   -2.5423    2.4048 H   0  0  0  0  0  0  0  0  0  0  0  0
   -1.0801   -4.9969    2.2223 H   0  0  0  0  0  0  0  0  0  0  0  0
    2.6018   -4.9366    0.0706 H   0  0  0  0  0  0  0  0  0  0  0  0
    2.6640   -2.4813    0.2459 H   0  0  0  0  0  0  0  0  0  0  0  0
   -0.9519   -7.7045   -0.3509 H   0  0  0  0  0  0  0  0  0  0  0  0
    0.3439   -5.7907   -1.8405 H   0  0  0  0  0  0  0  0  0  0  0  0
    1.5270   -7.1138   -1.7074 H   0  0  0  0  0  0  0  0  0  0  0  0
   -0.1347   -8.6947   -2.6498 H   0  0  0  0  0  0  0  0  0  0  0  0
   -1.3179   -7.3716   -2.7829 H   0  0  0  0  0  0  0  0  0  0  0  0
    0.2129   -6.1561   -4.3087 H   0  0  0  0  0  0  0  0  0  0  0  0
    1.3961   -7.4792   -4.1756 H   0  0  0  0  0  0  0  0  0  0  0  0
   -0.9116   -8.7217   -5.0067 H   0  0  0  0  0  0  0  0  0  0  0  0
    2.1742   -7.1434   -6.5185 H   0  0  0  0  0  0  0  0  0  0  0  0
    1.7971   -8.7941   -7.0673 H   0  0  0  0  0  0  0  0  0  0  0  0
    1.5822   -6.2631   -8.7598 H   0  0  0  0  0  0  0  0  0  0  0  0
    2.8757   -7.4806   -8.8728 H   0  0  0  0  0  0  0  0  0  0  0  0
    1.2051   -7.9138   -9.3085 H   0  0  0  0  0  0  0  0  0  0  0  0
  1  2  1  0  0  0  0
  1 25  1  0  0  0  0
  1 26  1  0  0  0  0
  1 27  1  0  0  0  0
  2  3  1  0  0  0  0
  2 28  1  0  0  0  0
  2 29  1  0  0  0  0
  3  4  2  0  0  0  0
  3  5  2  0  0  0  0
  3  6  1  0  0  0  0
  6 11  2  0  0  0  0
  6  7  1  0  0  0  0
  7  8  2  0  0  0  0
  7 30  1  0  0  0  0
  8  9  1  0  0  0  0
  8 31  1  0  0  0  0
  9 10  2  0  0  0  0
  9 12  1  0  0  0  0
 10 11  1  0  0  0  0
 10 32  1  0  0  0  0
 11 33  1  0  0  0  0
 12 13  2  0  0  0  0
 12 14  2  0  0  0  0
 12 15  1  0  0  0  0
 15 16  1  0  0  0  0
 15 34  1  0  0  0  0
 16 17  1  0  0  0  0
 16 35  1  0  0  0  0
 16 36  1  0  0  0  0
 17 18  1  0  0  0  0
 17 37  1  0  0  0  0
 17 38  1  0  0  0  0
 18 19  1  0  0  0  0
 18 39  1  0  0  0  0
 18 40  1  0  0  0  0
 19 20  1  0  0  0  0
 19 41  1  0  0  0  0
 20 21  2  0  0  0  0
 20 22  2  0  0  0  0
 20 23  1  0  0  0  0
 23 24  1  0  0  0  0
 23 42  1  0  0  0  0
 23 43  1  0  0  0  0
 24 44  1  0  0  0  0
 24 45  1  0  0  0  0
 24 46  1  0  0  0  0
M  END
$$$$
ZINC36765370
 OpenBabel01252620473D

 23 23  0  0  0  0  0  0  0  0999 V2000
   -0.0187    1.5258    0.0104 C   0  0  0  0  0  0  0  0  0  0  0  0
    1.3165    0.7789   -0.0063 C   0  0  0  0  0  0  0  0  0  0  0  0
    0.0021   -0.0041    0.0020 C   0  0  0  0  0  0  0  0  0  0  0  0
   -0.4085   -0.7090   -1.2923 C   0  0  0  0  0  0  0  0  0  0  0  0
   -0.4485   -2.5017   -1.0180 S   0  0  0  0  0  0  0  0  0  0  0  0
    0.8742   -2.9445   -0.7465 O   0  0  0  0  0  0  0  0  0  0  0  0
   -1.4794   -2.7906   -0.0837 O   0  0  0  0  0  0  0  0  0  0  0  0
   -0.9471   -3.1442   -2.6395 C   0  0  0  0  0  0  0  0  0  0  0  0
   -1.0300   -4.6708   -2.5796 C   0  0  0  0  0  0  0  0  0  0  0  0
   -1.4443   -5.2046   -3.9267 C   0  0  0  0  0  0  0  0  0  0  0  0
   -1.6537   -4.4353   -4.8491 O   0  0  0  0  0  0  0  0  0  0  0  0
   -1.5699   -6.4057   -4.0941 O   0  0  0  0  0  1  0  0  0  0  0  0
   -0.3072    2.0201    0.9381 H   0  0  0  0  0  0  0  0  0  0  0  0
   -0.3248    2.0300   -0.9061 H   0  0  0  0  0  0  0  0  0  0  0  0
    1.8888    0.7918   -0.9339 H   0  0  0  0  0  0  0  0  0  0  0  0
    1.9064    0.7818    0.9103 H   0  0  0  0  0  0  0  0  0  0  0  0
   -0.2728   -0.5162    0.9241 H   0  0  0  0  0  0  0  0  0  0  0  0
   -1.3977   -0.3657   -1.5950 H   0  0  0  0  0  0  0  0  0  0  0  0
    0.3122   -0.4774   -2.0766 H   0  0  0  0  0  0  0  0  0  0  0  0
   -1.9223   -2.7376   -2.9072 H   0  0  0  0  0  0  0  0  0  0  0  0
   -0.2124   -2.8494   -3.3887 H   0  0  0  0  0  0  0  0  0  0  0  0
   -0.0548   -5.0774   -2.3119 H   0  0  0  0  0  0  0  0  0  0  0  0
   -1.7647   -4.9657   -1.8304 H   0  0  0  0  0  0  0  0  0  0  0  0
  1  3  1  0  0  0  0
  1  2  1  0  0  0  0
  1 13  1  0  0  0  0
  1 14  1  0  0  0  0
  2  3  1  0  0  0  0
  2 15  1  0  0  0  0
  2 16  1  0  0  0  0
  3  4  1  0  0  0  0
  3 17  1  0  0  0  0
  4  5  1  0  0  0  0
  4 18  1  0  0  0  0
  4 19  1  0  0  0  0
  5  6  2  0  0  0  0
  5  7  2  0  0  0  0
  5  8  1  0  0  0  0
  8  9  1  0  0  0  0
  8 20  1  0  0  0  0
  8 21  1  0  0  0  0
  9 10  1  0  0  0  0
  9 22  1  0  0  0  0
  9 23  1  0  0  0  0
 10 11  2  0  0  0  0
 10 12  1  0  0  0  0
M  END
$$$$
ZINC61149302
 OpenBabel01252620473D

 37 37  0  0  0  0  0  0  0  0999 V2000
   -0.1880    1.6163   -0.0509 C   0  0  0  0  0  0  0  0  0  0  0  0
   -0.0657    0.0913   -0.0338 C   0  0  0  0  0  0  0  0  0  0  0  0
   -1.4032   -0.5056   -0.0010 N   0  0  0  0  0  0  0  0  0  0  0  0
   -2.0762   -0.7146   -1.1499 C   0  0  0  0  0  0  0  0  0  0  0  0
   -3.1873   -1.2105   -1.1227 O   0  0  0  0  0  0  0  0  0  0  0  0
   -1.4708   -0.3454   -2.4300 C   0  0  0  0  0  0  0  0  0  0  0  0
   -2.1444   -0.5546   -3.5799 C   0  0  0  0  0  0  0  0  0  0  0  0
   -1.5360   -0.1835   -4.8666 C   0  0  0  0  0  0  0  0  0  0  0  0
   -0.2567    0.3814   -4.9029 C   0  0  0  0  0  0  0  0  0  0  0  0
    0.3069    0.7261   -6.1123 C   0  0  0  0  0  0  0  0  0  0  0  0
   -0.3885    0.5153   -7.2912 C   0  0  0  0  0  0  0  0  0  0  0  0
   -1.6537   -0.0419   -7.2668 C   0  0  0  0  0  0  0  0  0  0  0  0
   -2.2319   -0.3989   -6.0630 C   0  0  0  0  0  0  0  0  0  0  0  0
   -3.4656   -0.9489   -6.0401 F   0  0  0  0  0  0  0  0  0  0  0  0
   -2.0092   -0.8752    1.2805 C   0  0  0  0  0  0  0  0  0  0  0  0
   -1.0501   -0.5218    2.4190 C   0  0  0  0  0  0  0  0  0  0  0  0
   -3.3217   -0.1105    1.4635 C   0  0  0  0  0  0  0  0  0  0  0  0
   -2.2845   -2.3568    1.2973 C   0  0  0  0  0  0  0  0  0  0  0  0
   -1.8960   -3.0594    0.3797 O   0  0  0  0  0  0  0  0  0  0  0  0
   -2.8957   -2.8528    2.2283 O   0  0  0  0  0  1  0  0  0  0  0  0
    0.8071    2.0604   -0.0753 H   0  0  0  0  0  0  0  0  0  0  0  0
   -0.7459    1.9261   -0.9346 H   0  0  0  0  0  0  0  0  0  0  0  0
   -0.7125    1.9488    0.8449 H   0  0  0  0  0  0  0  0  0  0  0  0
    0.4587   -0.2412   -0.9296 H   0  0  0  0  0  0  0  0  0  0  0  0
    0.4922   -0.2185    0.8499 H   0  0  0  0  0  0  0  0  0  0  0  0
   -0.4848    0.0946   -2.4541 H   0  0  0  0  0  0  0  0  0  0  0  0
   -3.1304   -0.9946   -3.5558 H   0  0  0  0  0  0  0  0  0  0  0  0
    0.2879    0.5473   -3.9851 H   0  0  0  0  0  0  0  0  0  0  0  0
    1.2944    1.1625   -6.1408 H   0  0  0  0  0  0  0  0  0  0  0  0
    0.0598    0.7880   -8.2351 H   0  0  0  0  0  0  0  0  0  0  0  0
   -2.1897   -0.2024   -8.1906 H   0  0  0  0  0  0  0  0  0  0  0  0
   -0.8510    0.5498    2.4069 H   0  0  0  0  0  0  0  0  0  0  0  0
   -1.5010   -0.7968    3.3725 H   0  0  0  0  0  0  0  0  0  0  0  0
   -0.1150   -1.0666    2.2887 H   0  0  0  0  0  0  0  0  0  0  0  0
   -4.0050   -0.3623    0.6524 H   0  0  0  0  0  0  0  0  0  0  0  0
   -3.7726   -0.3856    2.4170 H   0  0  0  0  0  0  0  0  0  0  0  0
   -3.1226    0.9611    1.4514 H   0  0  0  0  0  0  0  0  0  0  0  0
  1  2  1  0  0  0  0
  1 21  1  0  0  0  0
  1 22  1  0  0  0  0
  1 23  1  0  0  0  0
  2  3  1  0  0  0  0
  2 24  1  0  0  0  0
  2 25  1  0  0  0  0
  3  4  1  0  0  0  0
  3 15  1  0  0  0  0
  4  5  2  0  0  0  0
  4  6  1  0  0  0  0
  6  7  2  0  0  0  0
  6 26  1  0  0  0  0
  7  8  1  0  0  0  0
  7 27  1  0  0  0  0
  8 13  2  0  0  0  0
  8  9  1  0  0  0  0
  9 10  2  0  0  0  0
  9 28  1  0  0  0  0
 10 11  1  0  0  0  0
 10 29  1  0  0  0  0
 11 12  2  0  0  0  0
 11 30  1  0  0  0  0
 12 13  1  0  0  0  0
 12 31  1  0  0  0  0
 13 14  1  0  0  0  0
 15 16  1  0  0  0  0
 15 17  1  0  0  0  0
 15 18  1  0  0  0  0
 16 32  1  0  0  0  0
 16 33  1  0  0  0  0
 16 34  1  0  0  0  0
 17 35  1  0  0  0  0
 17 36  1  0  0  0  0
 17 37  1  0  0  0  0
 18 19  2  0  0  0  0
 18 20  1  0  0  0  0
M  END
$$$$
ZINC33634398
 OpenBabel01252620473D

 46 49  0  0  0  0  0  0  0  0999 V2000
   -0.0171    1.3786   -0.0144 C   0  0  0  0  0  0  0  0  0  0  0  0
    1.1660    2.0892   -0.0141 C   0  0  0  0  0  0  0  0  0  0  0  0
    2.3866    1.4120   -0.0193 C   0  0  0  0  0  0  0  0  0  0  0  0
    2.4048    0.0169   -0.0246 C   0  0  0  0  0  0  0  0  0  0  0  0
    1.2114   -0.6869   -0.0249 C   0  0  0  0  0  0  0  0  0  0  0  0
    0.0015   -0.0035   -0.0198 C   0  0  0  0  0  0  0  0  0  0  0  0
    1.2245   -2.0886   -0.0307 N   0  0  0  0  0  0  0  0  0  0  0  0
    2.3407   -2.8394   -0.0306 C   0  0  0  0  0  0  0  0  0  0  0  0
    3.4792   -2.4167   -0.0251 O   0  0  0  0  0  0  0  0  0  0  0  0
    1.9496   -4.2648   -0.0378 C   0  0  0  0  0  0  0  0  0  0  0  0
    2.6499   -5.4604   -0.0407 C   0  0  0  0  0  0  0  0  0  0  0  0
    1.9584   -6.6618   -0.0479 C   0  0  0  0  0  0  0  0  0  0  0  0
    0.5762   -6.6747   -0.0525 C   0  0  0  0  0  0  0  0  0  0  0  0
   -0.1377   -5.4865   -0.0496 C   0  0  0  0  0  0  0  0  0  0  0  0
    0.5400   -4.2779   -0.0420 C   0  0  0  0  0  0  0  0  0  0  0  0
    0.1224   -2.8601   -0.0315 C   0  0  0  0  0  0  0  0  0  0  0  0
   -1.0238   -2.4588   -0.0272 O   0  0  0  0  0  0  0  0  0  0  0  0
   -1.6177   -5.5086   -0.0551 N   0  0  0  0  0  4  0  0  0  0  0  0
   -2.2064   -6.5646   -0.0621 O   0  0  0  0  0  0  0  0  0  0  0  0
   -2.2378   -4.4708   -0.0525 O   0  5  0  0  0  0  0  0  0  0  0  0
    3.6556    2.1703   -0.0195 C   0  0  0  0  0  0  0  0  0  0  0  0
    4.7174    1.5784   -0.0239 O   0  0  0  0  0  0  0  0  0  0  0  0
    3.6353    3.5179   -0.0147 N   0  0  0  0  0  0  0  0  0  0  0  0
    4.8327    4.2352    0.0829 C   0  0  0  0  0  0  0  0  0  0  0  0
    5.9806    3.7515   -0.5274 C   0  0  0  0  0  0  0  0  0  0  0  0
    7.1784    4.4650   -0.4322 C   0  0  0  0  0  0  0  0  0  0  0  0
    7.2186    5.6647    0.2773 C   0  0  0  0  0  0  0  0  0  0  0  0
    6.0626    6.1476    0.8894 C   0  0  0  0  0  0  0  0  0  0  0  0
    4.8674    5.4311    0.7849 C   0  0  0  0  0  0  0  0  0  0  0  0
    6.0999    7.4167    1.6416 C   0  0  0  0  0  0  0  0  0  0  0  0
    7.1451    8.0455    1.7284 O   0  0  0  0  0  0  0  0  0  0  0  0
    5.0856    7.8395    2.1781 O   0  0  0  0  0  1  0  0  0  0  0  0
    8.3992    3.9493   -1.0815 C   0  0  0  0  0  0  0  0  0  0  0  0
    8.3631    2.8969   -1.7032 O   0  0  0  0  0  0  0  0  0  0  0  0
    9.4469    4.5743   -0.9977 O   0  0  0  0  0  1  0  0  0  0  0  0
   -0.9606    1.9042   -0.0059 H   0  0  0  0  0  0  0  0  0  0  0  0
    1.1475    3.1691   -0.0103 H   0  0  0  0  0  0  0  0  0  0  0  0
    3.3461   -0.5126   -0.0290 H   0  0  0  0  0  0  0  0  0  0  0  0
   -0.9276   -0.5541   -0.0197 H   0  0  0  0  0  0  0  0  0  0  0  0
    3.7299   -5.4564   -0.0379 H   0  0  0  0  0  0  0  0  0  0  0  0
    2.5034   -7.5942   -0.0502 H   0  0  0  0  0  0  0  0  0  0  0  0
    0.0487   -7.6171   -0.0587 H   0  0  0  0  0  0  0  0  0  0  0  0
    2.7907    3.9905   -0.0789 H   0  0  0  0  0  0  0  0  0  0  0  0
    5.9487    2.8221   -1.0765 H   0  0  0  0  0  0  0  0  0  0  0  0
    8.1429    6.2182    0.3529 H   0  0  0  0  0  0  0  0  0  0  0  0
    3.9705    5.8067    1.2550 H   0  0  0  0  0  0  0  0  0  0  0  0
  1  6  2  0  0  0  0
  1  2  1  0  0  0  0
  1 36  1  0  0  0  0
  2  3  2  0  0  0  0
  2 37  1  0  0  0  0
  3  4  1  0  0  0  0
  3 21  1  0  0  0  0
  4  5  2  0  0  0  0
  4 38  1  0  0  0  0
  5  6  1  0  0  0  0
  5  7  1  0  0  0  0
  6 39  1  0  0  0  0
  7 16  1  0  0  0  0
  7  8  1  0  0  0  0
  8  9  2  0  0  0  0
  8 10  1  0  0  0  0
 10 15  2  0  0  0  0
 10 11  1  0  0  0  0
 11 12  2  0  0  0  0
 11 40  1  0  0  0  0
 12 13  1  0  0  0  0
 12 41  1  0  0  0  0
 13 14  2  0  0  0  0
 13 42  1  0  0  0  0
 14 15  1  0  0  0  0
 14 18  1  0  0  0  0
 15 16  1  0  0  0  0
 16 17  2  0  0  0  0
 18 19  2  0  0  0  0
 18 20  1  0  0  0  0
 21 22  2  0  0  0  0
 21 23  1  0  0  0  0
 23 24  1  0  0  0  0
 23 43  1  0  0  0  0
 24 29  2  0  0  0  0
 24 25  1  0  0  0  0
 25 26  2  0  0  0  0
 25 44  1  0  0  0  0
 26 27  1  0  0  0  0
 26 33  1  0  0  0  0
 27 28  2  0  0  0  0
 27 45  1  0  0  0  0
 28 29  1  0  0  0  0
 28 30  1  0  0  0  0
 29 46  1  0  0  0  0
 30 31  2  0  0  0  0
 30 32  1  0  0  0  0
 33 34  2  0  0  0  0
 33 35  1  0  0  0  0
M  CHG  1  20  -1
M  END
$$$$
ZINC65055727
 OpenBabel01252620473D

 45 47  0  0  1  0  0  0  0  0999 V2000
   -0.3345    1.4509    1.1156 C   0  0  0  0  0  0  0  0  0  0  0  0
   -0.3209    0.0228    1.1632 O   0  0  0  0  0  0  0  0  0  0  0  0
   -1.3647   -0.6239    0.5810 C   0  0  0  0  0  0  0  0  0  0  0  0
   -1.4171   -2.0092    0.5961 C   0  0  0  0  0  0  0  0  0  0  0  0
   -2.4838   -2.6697    0.0011 C   0  0  0  0  0  0  0  0  0  0  0  0
   -3.4971   -1.9420   -0.6085 C   0  0  0  0  0  0  0  0  0  0  0  0
   -3.4432   -0.5568   -0.6226 C   0  0  0  0  0  0  0  0  0  0  0  0
   -2.3802    0.1023   -0.0232 C   0  0  0  0  0  0  0  0  0  0  0  0
   -4.4349    0.1555   -1.2192 O   0  0  0  0  0  0  0  0  0  0  0  0
   -4.3148    1.5793   -1.1964 C   0  0  0  0  0  0  0  0  0  0  0  0
   -2.5372   -4.0664    0.0155 N   0  0  0  0  0  0  0  0  0  0  0  0
   -3.7247   -4.6943    0.1252 C   0  0  0  0  0  0  0  0  0  0  0  0
   -4.7554   -4.0487    0.1341 O   0  0  0  0  0  0  0  0  0  0  0  0
   -3.7741   -6.1591    0.2341 C   0  0  0  0  0  0  0  0  0  0  0  0
   -4.8638   -6.9516    0.3445 C   0  0  0  0  0  0  0  0  0  0  0  0
   -4.4970   -8.2502    0.4212 N   0  0  0  0  0  0  0  0  0  0  0  0
   -3.2805   -8.4443    0.3764 N   0  0  0  0  0  0  0  0  0  0  0  0
   -2.6134   -7.1384    0.2424 C   0  0  1  0  0  0  0  0  0  0  0  0
   -1.9591   -6.9531    1.0942 H   0  0  0  0  0  0  0  0  0  0  0  0
   -1.6852   -7.0457   -1.3134 S   0  0  0  0  0  0  0  0  0  0  0  0
   -2.5166   -7.4221   -2.4025 O   0  0  0  0  0  0  0  0  0  0  0  0
   -0.9288   -5.8437   -1.3611 O   0  0  0  0  0  0  0  0  0  0  0  0
   -0.5555   -8.2519   -1.2075 N   0  0  0  0  0  2  0  0  0  0  0  0
    0.3429   -8.4625   -2.2580 C   0  0  0  0  0  0  0  0  0  0  0  0
    0.2925   -7.6571   -3.3882 C   0  0  0  0  0  0  0  0  0  0  0  0
    1.1812   -7.8666   -4.4245 C   0  0  0  0  0  0  0  0  0  0  0  0
    2.1219   -8.8789   -4.3371 C   0  0  0  0  0  0  0  0  0  0  0  0
    2.1740   -9.6832   -3.2112 C   0  0  0  0  0  0  0  0  0  0  0  0
    1.2906   -9.4738   -2.1702 C   0  0  0  0  0  0  0  0  0  0  0  0
    2.9900   -9.0824   -5.3521 F   0  0  0  0  0  0  0  0  0  0  0  0
    0.5530    1.8396    1.6151 H   0  0  0  0  0  0  0  0  0  0  0  0
   -0.3399    1.7798    0.0764 H   0  0  0  0  0  0  0  0  0  0  0  0
   -1.2269    1.8227    1.6190 H   0  0  0  0  0  0  0  0  0  0  0  0
   -0.6283   -2.5744    1.0701 H   0  0  0  0  0  0  0  0  0  0  0  0
   -4.3270   -2.4550   -1.0718 H   0  0  0  0  0  0  0  0  0  0  0  0
   -2.3412    1.1816   -0.0304 H   0  0  0  0  0  0  0  0  0  0  0  0
   -3.3963    1.8746   -1.7035 H   0  0  0  0  0  0  0  0  0  0  0  0
   -5.1699    2.0242   -1.7053 H   0  0  0  0  0  0  0  0  0  0  0  0
   -4.2867    1.9251   -0.1631 H   0  0  0  0  0  0  0  0  0  0  0  0
   -1.7195   -4.5837   -0.0535 H   0  0  0  0  0  0  0  0  0  0  0  0
   -5.8837   -6.5971    0.3684 H   0  0  0  0  0  0  0  0  0  0  0  0
   -0.4413   -6.8676   -3.4569 H   0  0  0  0  0  0  0  0  0  0  0  0
    1.1422   -7.2407   -5.3037 H   0  0  0  0  0  0  0  0  0  0  0  0
    2.9083  -10.4724   -3.1453 H   0  0  0  0  0  0  0  0  0  0  0  0
    1.3345  -10.0985   -1.2903 H   0  0  0  0  0  0  0  0  0  0  0  0
  1  2  1  0  0  0  0
  1 31  1  0  0  0  0
  1 32  1  0  0  0  0
  1 33  1  0  0  0  0
  2  3  1  0  0  0  0
  3  8  2  0  0  0  0
  3  4  1  0  0  0  0
  4  5  2  0  0  0  0
  4 34  1  0  0  0  0
  5  6  1  0  0  0  0
  5 11  1  0  0  0  0
  6  7  2  0  0  0  0
  6 35  1  0  0  0  0
  7  8  1  0  0  0  0
  7  9  1  0  0  0  0
  8 36  1  0  0  0  0
  9 10  1  0  0  0  0
 10 37  1  0  0  0  0
 10 38  1  0  0  0  0
 10 39  1  0  0  0  0
 11 12  1  0  0  0  0
 11 40  1  0  0  0  0
 12 13  2  0  0  0  0
 12 14  1  0  0  0  0
 14 18  1  0  0  0  0
 14 15  2  0  0  0  0
 15 16  1  0  0  0  0
 15 41  1  0  0  0  0
 16 17  2  0  0  0  0
 17 18  1  0  0  0  0
 18 19  1  1  0  0  0
 18 20  1  0  0  0  0
 20 21  2  0  0  0  0
 20 22  2  0  0  0  0
 20 23  1  0  0  0  0
 23 24  1  0  0  0  0
 24 29  2  0  0  0  0
 24 25  1  0  0  0  0
 25 26  2  0  0  0  0
 25 42  1  0  0  0  0
 26 27  1  0  0  0  0
 26 43  1  0  0  0  0
 27 28  2  0  0  0  0
 27 30  1  0  0  0  0
 28 29  1  0  0  0  0
 28 44  1  0  0  0  0
 29 45  1  0  0  0  0
M  END
$$$$
ZINC35456292
 OpenBabel01252620473D

 51 54  0  0  0  0  0  0  0  0999 V2000
   -0.0187    1.5258    0.0104 C   0  0  0  0  0  0  0  0  0  0  0  0
    0.0021   -0.0041    0.0020 C   0  0  0  0  0  0  0  0  0  0  0  0
   -1.4333   -0.5336    0.0129 C   0  0  0  0  0  0  0  0  0  0  0  0
   -1.4129   -2.0405    0.0046 C   0  0  0  0  0  0  0  0  0  0  0  0
   -1.4069   -2.8646   -1.1472 C   0  0  0  0  0  0  0  0  0  0  0  0
   -1.3861   -4.1844   -0.7024 C   0  0  0  0  0  0  0  0  0  0  0  0
   -1.3800   -4.1485    0.6479 N   0  0  0  0  0  0  0  0  0  0  0  0
   -1.3920   -2.8105    1.0564 N   0  0  0  0  0  0  0  0  0  0  0  0
   -1.3606   -5.2635    1.4966 C   0  0  0  0  0  0  0  0  0  0  0  0
   -2.0310   -6.4245    1.1354 C   0  0  0  0  0  0  0  0  0  0  0  0
   -2.0101   -7.5217    1.9739 C   0  0  0  0  0  0  0  0  0  0  0  0
   -1.3227   -7.4647    3.1725 C   0  0  0  0  0  0  0  0  0  0  0  0
   -0.6544   -6.3097    3.5353 C   0  0  0  0  0  0  0  0  0  0  0  0
   -0.6661   -5.2114    2.6979 C   0  0  0  0  0  0  0  0  0  0  0  0
   -1.3746   -5.2944   -1.4776 O   0  5  0  0  0  0  0  0  0  0  0  0
   -1.4200   -2.4148   -2.5404 C   0  0  0  0  0  0  0  0  0  0  0  0
   -0.5146   -2.9138   -3.4249 C   0  0  0  0  0  0  0  0  0  0  0  0
   -0.3890   -2.5810   -4.7999 C   0  0  0  0  0  0  0  0  0  0  0  0
   -1.0763   -1.7882   -5.4186 O   0  0  0  0  0  0  0  0  0  0  0  0
    0.6336   -3.3076   -5.2909 N   0  0  0  0  0  0  0  0  0  0  0  0
    1.1544   -4.0709   -4.3157 C   0  0  0  0  0  0  0  0  0  0  0  0
    2.0901   -4.8360   -4.4521 O   0  0  0  0  0  0  0  0  0  0  0  0
    0.4909   -3.8586   -3.1636 N   0  0  0  0  0  0  0  0  0  0  0  0
    1.1055   -3.2716   -6.6774 C   0  0  0  0  0  0  0  0  0  0  0  0
    2.1701   -2.2144   -6.8184 C   0  0  0  0  0  0  0  0  0  0  0  0
    1.8491   -0.9753   -7.3403 C   0  0  0  0  0  0  0  0  0  0  0  0
    2.8255   -0.0056   -7.4697 C   0  0  0  0  0  0  0  0  0  0  0  0
    4.1238   -0.2742   -7.0772 C   0  0  0  0  0  0  0  0  0  0  0  0
    4.4459   -1.5126   -6.5553 C   0  0  0  0  0  0  0  0  0  0  0  0
    3.4676   -2.4819   -6.4202 C   0  0  0  0  0  0  0  0  0  0  0  0
    3.8701   -4.0356   -5.7585 Cl  0  0  0  0  0  0  0  0  0  0  0  0
    1.0039    1.9031    0.0027 H   0  0  0  0  0  0  0  0  0  0  0  0
   -0.5459    1.8868   -0.8726 H   0  0  0  0  0  0  0  0  0  0  0  0
   -0.5289    1.8773    0.9072 H   0  0  0  0  0  0  0  0  0  0  0  0
    0.5123   -0.3556   -0.8948 H   0  0  0  0  0  0  0  0  0  0  0  0
    0.5293   -0.3651    0.8851 H   0  0  0  0  0  0  0  0  0  0  0  0
   -1.9435   -0.1821    0.9097 H   0  0  0  0  0  0  0  0  0  0  0  0
   -1.9605   -0.1726   -0.8702 H   0  0  0  0  0  0  0  0  0  0  0  0
   -2.5686   -6.4694    0.1998 H   0  0  0  0  0  0  0  0  0  0  0  0
   -2.5314   -8.4250    1.6935 H   0  0  0  0  0  0  0  0  0  0  0  0
   -1.3081   -8.3239    3.8267 H   0  0  0  0  0  0  0  0  0  0  0  0
   -0.1188   -6.2681    4.4721 H   0  0  0  0  0  0  0  0  0  0  0  0
   -0.1400   -4.3113    2.9795 H   0  0  0  0  0  0  0  0  0  0  0  0
   -2.1484   -1.6870   -2.8660 H   0  0  0  0  0  0  0  0  0  0  0  0
    0.6725   -4.2825   -2.3102 H   0  0  0  0  0  0  0  0  0  0  0  0
    1.5205   -4.2432   -6.9453 H   0  0  0  0  0  0  0  0  0  0  0  0
    0.2714   -3.0378   -7.3390 H   0  0  0  0  0  0  0  0  0  0  0  0
    0.8353   -0.7650   -7.6474 H   0  0  0  0  0  0  0  0  0  0  0  0
    2.5744    0.9623   -7.8778 H   0  0  0  0  0  0  0  0  0  0  0  0
    4.8864    0.4838   -7.1788 H   0  0  0  0  0  0  0  0  0  0  0  0
    5.4601   -1.7225   -6.2490 H   0  0  0  0  0  0  0  0  0  0  0  0
  1  2  1  0  0  0  0
  1 32  1  0  0  0  0
  1 33  1  0  0  0  0
  1 34  1  0  0  0  0
  2  3  1  0  0  0  0
  2 35  1  0  0  0  0
  2 36  1  0  0  0  0
  3  4  1  0  0  0  0
  3 37  1  0  0  0  0
  3 38  1  0  0  0  0
  4  8  2  0  0  0  0
  4  5  1  0  0  0  0
  5  6  2  0  0  0  0
  5 16  1  0  0  0  0
  6  7  1  0  0  0  0
  6 15  1  0  0  0  0
  7  8  1  0  0  0  0
  7  9  1  0  0  0  0
  9 14  2  0  0  0  0
  9 10  1  0  0  0  0
 10 11  2  0  0  0  0
 10 39  1  0  0  0  0
 11 12  1  0  0  0  0
 11 40  1  0  0  0  0
 12 13  2  0  0  0  0
 12 41  1  0  0  0  0
 13 14  1  0  0  0  0
 13 42  1  0  0  0  0
 14 43  1  0  0  0  0
 16 17  2  0  0  0  0
 16 44  1  0  0  0  0
 17 23  1  0  0  0  0
 17 18  1  0  0  0  0
 18 19  2  0  0  0  0
 18 20  1  0  0  0  0
 20 21  1  0  0  0  0
 20 24  1  0  0  0  0
 21 22  2  0  0  0  0
 21 23  1  0  0  0  0
 23 45  1  0  0  0  0
 24 25  1  0  0  0  0
 24 46  1  0  0  0  0
 24 47  1  0  0  0  0
 25 30  2  0  0  0  0
 25 26  1  0  0  0  0
 26 27  2  0  0  0  0
 26 48  1  0  0  0  0
 27 28  1  0  0  0  0
 27 49  1  0  0  0  0
 28 29  2  0  0  0  0
 28 50  1  0  0  0  0
 29 30  1  0  0  0  0
 29 51  1  0  0  0  0
 30 31  1  0  0  0  0
M  CHG  1  15  -1
M  END
$$$$
ZINC67244891
 OpenBabel01252620473D

 37 38  0  0  0  0  0  0  0  0999 V2000
   -0.0187    1.5258    0.0104 C   0  0  0  0  0  0  0  0  0  0  0  0
    0.0021   -0.0041    0.0020 C   0  0  0  0  0  0  0  0  0  0  0  0
    0.6878   -0.4765   -1.2033 N   0  0  0  0  0  0  0  0  0  0  0  0
    0.8268   -1.7986   -1.4250 C   0  0  0  0  0  0  0  0  0  0  0  0
    0.3843   -2.5972   -0.6267 O   0  0  0  0  0  0  0  0  0  0  0  0
    1.5322   -2.2846   -2.6649 C   0  0  0  0  0  0  0  0  0  0  0  0
    1.5521   -3.7495   -2.6730 N   0  0  0  0  0  0  0  0  0  0  0  0
    1.0968   -4.5430   -3.6651 C   0  0  0  0  0  0  0  0  0  0  0  0
    1.2943   -5.8280   -3.2924 C   0  0  0  0  0  0  0  0  0  0  0  0
    1.8939   -5.8208   -2.0225 C   0  0  0  0  0  0  0  0  0  0  0  0
    2.0525   -4.5712   -1.6549 N   0  0  0  0  0  0  0  0  0  0  0  0
    2.2631   -6.9493   -1.2810 N   0  0  0  0  0  2  0  0  0  0  0  0
    2.9636   -6.7685    0.2086 S   0  0  0  0  0  0  0  0  0  0  0  0
    4.2281   -6.1578   -0.0087 O   0  0  0  0  0  0  0  0  0  0  0  0
    1.9763   -6.1955    1.0549 O   0  0  0  0  0  0  0  0  0  0  0  0
    3.2853   -8.3846    0.8326 C   0  0  0  0  0  0  0  0  0  0  0  0
    2.3233   -9.0367    1.5844 C   0  0  0  0  0  0  0  0  0  0  0  0
    2.5673  -10.3018    2.0760 C   0  0  0  0  0  0  0  0  0  0  0  0
    3.7890  -10.9259    1.8139 C   0  0  0  0  0  0  0  0  0  0  0  0
    4.7562  -10.2623    1.0542 C   0  0  0  0  0  0  0  0  0  0  0  0
    4.4955   -8.9975    0.5641 C   0  0  0  0  0  0  0  0  0  0  0  0
    6.2785  -11.0278    0.7224 Cl  0  0  0  0  0  0  0  0  0  0  0  0
    4.0494  -12.2393    2.3215 C   0  0  0  0  0  0  0  0  0  0  0  0
    4.2560  -13.2813    2.7243 N   0  0  0  0  0  0  0  0  0  0  0  0
    1.0039    1.9031    0.0027 H   0  0  0  0  0  0  0  0  0  0  0  0
   -0.5459    1.8868   -0.8726 H   0  0  0  0  0  0  0  0  0  0  0  0
   -0.5289    1.8773    0.9072 H   0  0  0  0  0  0  0  0  0  0  0  0
    0.5293   -0.3651    0.8851 H   0  0  0  0  0  0  0  0  0  0  0  0
   -1.0205   -0.3814    0.0098 H   0  0  0  0  0  0  0  0  0  0  0  0
    1.0417    0.1622   -1.8418 H   0  0  0  0  0  0  0  0  0  0  0  0
    1.0050   -1.9236   -3.5480 H   0  0  0  0  0  0  0  0  0  0  0  0
    2.5548   -1.9074   -2.6726 H   0  0  0  0  0  0  0  0  0  0  0  0
    0.6530   -4.2109   -4.5921 H   0  0  0  0  0  0  0  0  0  0  0  0
    1.0367   -6.7041   -3.8689 H   0  0  0  0  0  0  0  0  0  0  0  0
    1.3791   -8.5532    1.7869 H   0  0  0  0  0  0  0  0  0  0  0  0
    1.8155  -10.8087    2.6627 H   0  0  0  0  0  0  0  0  0  0  0  0
    5.2400   -8.4845   -0.0267 H   0  0  0  0  0  0  0  0  0  0  0  0
  1  2  1  0  0  0  0
  1 25  1  0  0  0  0
  1 26  1  0  0  0  0
  1 27  1  0  0  0  0
  2  3  1  0  0  0  0
  2 28  1  0  0  0  0
  2 29  1  0  0  0  0
  3  4  1  0  0  0  0
  3 30  1  0  0  0  0
  4  5  2  0  0  0  0
  4  6  1  0  0  0  0
  6  7  1  0  0  0  0
  6 31  1  0  0  0  0
  6 32  1  0  0  0  0
  7 11  1  0  0  0  0
  7  8  1  0  0  0  0
  8  9  2  0  0  0  0
  8 33  1  0  0  0  0
  9 10  1  0  0  0  0
  9 34  1  0  0  0  0
 10 11  2  0  0  0  0
 10 12  1  0  0  0  0
 12 13  1  0  0  0  0
 13 14  2  0  0  0  0
 13 15  2  0  0  0  0
 13 16  1  0  0  0  0
 16 21  2  0  0  0  0
 16 17  1  0  0  0  0
 17 18  2  0  0  0  0
 17 35  1  0  0  0  0
 18 19  1  0  0  0  0
 18 36  1  0  0  0  0
 19 20  2  0  0  0  0
 19 23  1  0  0  0  0
 20 21  1  0  0  0  0
 20 22  1  0  0  0  0
 21 37  1  0  0  0  0
 23 24  3  0  0  0  0
M  END
$$$$
ZINC09007968
 OpenBabel01252620473D

 62 65  0  0  1  0  0  0  0  0999 V2000
    1.4151    2.2321   -0.3510 C   0  0  0  0  0  0  0  0  0  0  0  0
    1.9163    1.4262   -1.5216 C   0  0  0  0  0  0  0  0  0  0  0  0
    1.1291    0.6777   -2.4250 C   0  0  0  0  0  0  0  0  0  0  0  0
    1.9953    0.1013   -3.3376 C   0  0  0  0  0  0  0  0  0  0  0  0
    3.2476    0.4681   -3.0227 N   0  0  0  0  0  0  0  0  0  0  0  0
    4.0481    0.2027   -3.5021 H   0  0  0  0  0  0  0  0  0  0  0  0
    3.2155    1.2860   -1.9133 C   0  0  0  0  0  0  0  0  0  0  0  0
    4.3791    1.8978   -1.2635 C   0  0  0  0  0  0  0  0  0  0  0  0
    4.2280    2.6023   -0.2840 O   0  0  0  0  0  0  0  0  0  0  0  0
    5.6170    1.6791   -1.7523 O   0  0  0  0  0  0  0  0  0  0  0  0
    6.7043    2.3065   -1.0695 C   0  0  0  0  0  0  0  0  0  0  0  0
    1.6000   -0.7873   -4.4888 C   0  0  0  0  0  0  0  0  0  0  0  0
   -0.3384    0.5371   -2.4001 C   0  0  0  0  0  0  0  0  0  0  0  0
   -0.9966    1.1676   -1.5935 O   0  0  0  0  0  0  0  0  0  0  0  0
   -1.0052   -0.3628   -3.3477 C   0  0  0  0  0  0  0  0  0  0  0  0
   -1.1428   -0.1731   -4.6799 C   0  0  0  0  0  0  0  0  0  0  0  0
   -1.8762   -1.3172   -5.2604 C   0  0  0  0  0  0  0  0  0  0  0  0
   -2.1572   -1.4413   -6.4359 O   0  0  0  0  0  0  0  0  0  0  0  0
   -2.1864   -2.2013   -4.2949 N   0  0  0  0  0  0  0  0  0  0  0  0
   -1.6648   -1.6831   -3.0247 C   0  0  1  0  0  0  0  0  0  0  0  0
   -2.4825   -1.5311   -2.3201 H   0  0  0  0  0  0  0  0  0  0  0  0
   -0.6537   -2.6400   -2.4475 C   0  0  0  0  0  0  0  0  0  0  0  0
   -0.5113   -3.0616   -1.1671 C   0  0  0  0  0  0  0  0  0  0  0  0
    0.4997   -3.9539   -0.8638 C   0  0  0  0  0  0  0  0  0  0  0  0
    1.3190   -4.3811   -1.8556 C   0  0  0  0  0  0  0  0  0  0  0  0
    0.6624   -3.5185   -3.2741 S   0  0  0  0  0  0  0  0  0  0  0  0
   -2.9118   -3.4607   -4.4795 C   0  0  0  0  0  0  0  0  0  0  0  0
   -1.9157   -4.5851   -4.7701 C   0  0  0  0  0  0  0  0  0  0  0  0
   -2.6733   -5.9003   -4.9630 C   0  0  0  0  0  0  0  0  0  0  0  0
   -1.7169   -6.9799   -5.2420 N   0  0  0  0  0  0  0  0  0  0  0  0
   -1.0525   -6.7735   -6.5371 C   0  0  0  0  0  0  0  0  0  0  0  0
   -0.0243   -7.8856   -6.7600 C   0  0  0  0  0  0  0  0  0  0  0  0
   -0.6784   -9.1551   -6.6833 O   0  0  0  0  0  0  0  0  0  0  0  0
   -1.3355   -9.3897   -5.4349 C   0  0  0  0  0  0  0  0  0  0  0  0
   -2.3770   -8.2928   -5.1985 C   0  0  0  0  0  0  0  0  0  0  0  0
   -0.6823    0.8951   -5.3714 O   0  5  0  0  0  0  0  0  0  0  0  0
    1.2005    3.2501   -0.6760 H   0  0  0  0  0  0  0  0  0  0  0  0
    0.5058    1.7765    0.0411 H   0  0  0  0  0  0  0  0  0  0  0  0
    2.1766    2.2525    0.4286 H   0  0  0  0  0  0  0  0  0  0  0  0
    6.5692    3.3879   -1.0876 H   0  0  0  0  0  0  0  0  0  0  0  0
    6.7322    1.9610   -0.0361 H   0  0  0  0  0  0  0  0  0  0  0  0
    7.6409    2.0490   -1.5641 H   0  0  0  0  0  0  0  0  0  0  0  0
    1.2956   -0.1716   -5.3352 H   0  0  0  0  0  0  0  0  0  0  0  0
    2.4486   -1.4075   -4.7771 H   0  0  0  0  0  0  0  0  0  0  0  0
    0.7696   -1.4255   -4.1866 H   0  0  0  0  0  0  0  0  0  0  0  0
   -1.1777   -2.7053   -0.3955 H   0  0  0  0  0  0  0  0  0  0  0  0
    0.6352   -4.3053    0.1485 H   0  0  0  0  0  0  0  0  0  0  0  0
    2.1506   -5.0681   -1.8023 H   0  0  0  0  0  0  0  0  0  0  0  0
   -3.4698   -3.6949   -3.5729 H   0  0  0  0  0  0  0  0  0  0  0  0
   -3.6031   -3.3624   -5.3164 H   0  0  0  0  0  0  0  0  0  0  0  0
   -1.3578   -4.3509   -5.6767 H   0  0  0  0  0  0  0  0  0  0  0  0
   -1.2244   -4.6833   -3.9332 H   0  0  0  0  0  0  0  0  0  0  0  0
   -3.2312   -6.1345   -4.0564 H   0  0  0  0  0  0  0  0  0  0  0  0
   -3.3646   -5.8020   -5.7999 H   0  0  0  0  0  0  0  0  0  0  0  0
   -1.7947   -6.7987   -7.3350 H   0  0  0  0  0  0  0  0  0  0  0  0
   -0.5490   -5.8067   -6.5379 H   0  0  0  0  0  0  0  0  0  0  0  0
    0.4302   -7.7692   -7.7439 H   0  0  0  0  0  0  0  0  0  0  0  0
    0.7475   -7.8269   -5.9926 H   0  0  0  0  0  0  0  0  0  0  0  0
   -1.8293  -10.3611   -5.4604 H   0  0  0  0  0  0  0  0  0  0  0  0
   -0.6018   -9.3747   -4.6289 H   0  0  0  0  0  0  0  0  0  0  0  0
   -2.8403   -8.4351   -4.2222 H   0  0  0  0  0  0  0  0  0  0  0  0
   -3.1404   -8.3422   -5.9750 H   0  0  0  0  0  0  0  0  0  0  0  0
  1  2  1  0  0  0  0
  1 37  1  0  0  0  0
  1 38  1  0  0  0  0
  1 39  1  0  0  0  0
  2  7  2  0  0  0  0
  2  3  1  0  0  0  0
  3  4  2  0  0  0  0
  3 13  1  0  0  0  0
  4  5  1  0  0  0  0
  4 12  1  0  0  0  0
  5  6  1  0  0  0  0
  5  7  1  0  0  0  0
  7  8  1  0  0  0  0
  8  9  2  0  0  0  0
  8 10  1  0  0  0  0
 10 11  1  0  0  0  0
 11 40  1  0  0  0  0
 11 41  1  0  0  0  0
 11 42  1  0  0  0  0
 12 43  1  0  0  0  0
 12 44  1  0  0  0  0
 12 45  1  0  0  0  0
 13 14  2  0  0  0  0
 13 15  1  0  0  0  0
 15 20  1  0  0  0  0
 15 16  2  0  0  0  0
 16 17  1  0  0  0  0
 16 36  1  0  0  0  0
 17 18  2  0  0  0  0
 17 19  1  0  0  0  0
 19 20  1  0  0  0  0
 19 27  1  0  0  0  0
 20 21  1  1  0  0  0
 20 22  1  0  0  0  0
 22 26  1  0  0  0  0
 22 23  2  0  0  0  0
 23 24  1  0  0  0  0
 23 46  1  0  0  0  0
 24 25  2  0  0  0  0
 24 47  1  0  0  0  0
 25 26  1  0  0  0  0
 25 48  1  0  0  0  0
 27 28  1  0  0  0  0
 27 49  1  0  0  0  0
 27 50  1  0  0  0  0
 28 29  1  0  0  0  0
 28 51  1  0  0  0  0
 28 52  1  0  0  0  0
 29 30  1  0  0  0  0
 29 53  1  0  0  0  0
 29 54  1  0  0  0  0
 30 35  1  0  0  0  0
 30 31  1  0  0  0  0
 31 32  1  0  0  0  0
 31 55  1  0  0  0  0
 31 56  1  0  0  0  0
 32 33  1  0  0  0  0
 32 57  1  0  0  0  0
 32 58  1  0  0  0  0
 33 34  1  0  0  0  0
 34 35  1  0  0  0  0
 34 59  1  0  0  0  0
 34 60  1  0  0  0  0
 35 61  1  0  0  0  0
 35 62  1  0  0  0  0
M  CHG  1  36  -1
M  END
$$$$
ZINC59437177
 OpenBabel01252620473D

 49 51  0  0  0  0  0  0  0  0999 V2000
   -0.1899    1.5441    1.4948 C   0  0  0  0  0  0  0  0  0  0  0  0
   -0.1637    0.0143    1.4927 C   0  0  0  0  0  0  0  0  0  0  0  0
   -1.4695   -0.4841    1.1953 O   0  0  0  0  0  0  0  0  0  0  0  0
   -1.6185   -1.8207    1.1546 C   0  0  0  0  0  0  0  0  0  0  0  0
   -0.5638   -2.6226    1.3885 O   0  5  0  0  0  0  0  0  0  0  0  0
   -2.8620   -2.3729    0.8710 C   0  0  0  0  0  0  0  0  0  0  0  0
   -3.0740   -3.8255    0.8155 C   0  0  0  0  0  0  0  0  0  0  0  0
   -4.8032   -3.9908    0.4250 S   0  0  0  0  0  0  0  0  0  0  0  0
   -5.2697   -2.2752    0.3289 C   0  0  0  0  0  0  0  0  0  0  0  0
   -6.4927   -1.7550    0.0561 C   0  0  0  0  0  0  0  0  0  0  0  0
   -7.6604   -2.6398   -0.0486 C   0  0  0  0  0  0  0  0  0  0  0  0
   -7.6364   -3.9081    0.5446 C   0  0  0  0  0  0  0  0  0  0  0  0
   -8.7336   -4.7337    0.4435 C   0  0  0  0  0  0  0  0  0  0  0  0
   -9.8640   -4.3107   -0.2456 C   0  0  0  0  0  0  0  0  0  0  0  0
   -9.8938   -3.0524   -0.8366 C   0  0  0  0  0  0  0  0  0  0  0  0
   -8.8036   -2.2159   -0.7368 C   0  0  0  0  0  0  0  0  0  0  0  0
  -11.4362   -2.4853   -1.7723 Br  0  0  0  0  0  0  0  0  0  0  0  0
  -10.9432   -5.1294   -0.3424 O   0  0  0  0  0  0  0  0  0  0  0  0
  -10.8457   -6.4085    0.2873 C   0  0  0  0  0  0  0  0  0  0  0  0
   -4.0226   -1.5538    0.6196 C   0  0  0  0  0  0  0  0  0  0  0  0
   -3.9712   -0.3355    0.6432 O   0  0  0  0  0  0  0  0  0  0  0  0
   -2.1896   -4.7838    1.0093 N   0  0  0  0  0  0  0  0  0  0  0  0
   -2.5697   -6.0940    0.9168 C   0  0  0  0  0  0  0  0  0  0  0  0
   -3.7545   -6.5244    1.5198 C   0  0  0  0  0  0  0  0  0  0  0  0
   -4.1338   -7.8466    1.4232 C   0  0  0  0  0  0  0  0  0  0  0  0
   -3.3406   -8.7497    0.7287 C   0  0  0  0  0  0  0  0  0  0  0  0
   -2.1625   -8.3271    0.1283 C   0  0  0  0  0  0  0  0  0  0  0  0
   -1.7777   -7.0057    0.2139 C   0  0  0  0  0  0  0  0  0  0  0  0
   -3.7186  -10.0526    0.6367 O   0  0  0  0  0  0  0  0  0  0  0  0
   -2.8563  -10.9283   -0.0924 C   0  0  0  0  0  0  0  0  0  0  0  0
    0.8061    1.9242    1.7217 H   0  0  0  0  0  0  0  0  0  0  0  0
   -0.5013    1.9035    0.5140 H   0  0  0  0  0  0  0  0  0  0  0  0
   -0.8933    1.8943    2.2503 H   0  0  0  0  0  0  0  0  0  0  0  0
    0.5397   -0.3360    0.7373 H   0  0  0  0  0  0  0  0  0  0  0  0
    0.1477   -0.3451    2.4735 H   0  0  0  0  0  0  0  0  0  0  0  0
   -6.6076   -0.6903   -0.0842 H   0  0  0  0  0  0  0  0  0  0  0  0
   -6.7585   -4.2382    1.0801 H   0  0  0  0  0  0  0  0  0  0  0  0
   -8.7157   -5.7121    0.9004 H   0  0  0  0  0  0  0  0  0  0  0  0
   -8.8291   -1.2370   -1.1923 H   0  0  0  0  0  0  0  0  0  0  0  0
  -10.0157   -6.9653   -0.1477 H   0  0  0  0  0  0  0  0  0  0  0  0
  -10.6739   -6.2755    1.3554 H   0  0  0  0  0  0  0  0  0  0  0  0
  -11.7731   -6.9604    0.1344 H   0  0  0  0  0  0  0  0  0  0  0  0
   -4.3719   -5.8227    2.0609 H   0  0  0  0  0  0  0  0  0  0  0  0
   -5.0493   -8.1802    1.8889 H   0  0  0  0  0  0  0  0  0  0  0  0
   -1.5484   -9.0336   -0.4103 H   0  0  0  0  0  0  0  0  0  0  0  0
   -0.8634   -6.6769   -0.2576 H   0  0  0  0  0  0  0  0  0  0  0  0
   -2.7657  -10.5764   -1.1200 H   0  0  0  0  0  0  0  0  0  0  0  0
   -1.8719  -10.9414    0.3754 H   0  0  0  0  0  0  0  0  0  0  0  0
   -3.2737  -11.9352   -0.0887 H   0  0  0  0  0  0  0  0  0  0  0  0
  1  2  1  0  0  0  0
  1 31  1  0  0  0  0
  1 32  1  0  0  0  0
  1 33  1  0  0  0  0
  2  3  1  0  0  0  0
  2 34  1  0  0  0  0
  2 35  1  0  0  0  0
  3  4  1  0  0  0  0
  4  5  1  0  0  0  0
  4  6  2  0  0  0  0
  6  7  1  0  0  0  0
  6 20  1  0  0  0  0
  7 22  2  0  0  0  0
  7  8  1  0  0  0  0
  8  9  1  0  0  0  0
  9 10  2  0  0  0  0
  9 20  1  0  0  0  0
 10 11  1  0  0  0  0
 10 36  1  0  0  0  0
 11 16  2  0  0  0  0
 11 12  1  0  0  0  0
 12 13  2  0  0  0  0
 12 37  1  0  0  0  0
 13 14  1  0  0  0  0
 13 38  1  0  0  0  0
 14 15  2  0  0  0  0
 14 18  1  0  0  0  0
 15 16  1  0  0  0  0
 15 17  1  0  0  0  0
 16 39  1  0  0  0  0
 18 19  1  0  0  0  0
 19 40  1  0  0  0  0
 19 41  1  0  0  0  0
 19 42  1  0  0  0  0
 20 21  2  0  0  0  0
 22 23  1  0  0  0  0
 23 28  2  0  0  0  0
 23 24  1  0  0  0  0
 24 25  2  0  0  0  0
 24 43  1  0  0  0  0
 25 26  1  0  0  0  0
 25 44  1  0  0  0  0
 26 27  2  0  0  0  0
 26 29  1  0  0  0  0
 27 28  1  0  0  0  0
 27 45  1  0  0  0  0
 28 46  1  0  0  0  0
 29 30  1  0  0  0  0
 30 47  1  0  0  0  0
 30 48  1  0  0  0  0
 30 49  1  0  0  0  0
M  CHG  1   5  -1
M  END
$$$$
ZINC55270779
 OpenBabel01252620473D

 45 47  0  0  0  0  0  0  0  0999 V2000
   -0.0187    1.5258    0.0104 C   0  0  0  0  0  0  0  0  0  0  0  0
    0.0021   -0.0041    0.0020 C   0  0  0  0  0  0  0  0  0  0  0  0
    0.7421   -0.5109    1.2415 C   0  0  0  0  0  0  0  0  0  0  0  0
   -1.4333   -0.5336    0.0129 C   0  0  0  0  0  0  0  0  0  0  0  0
   -1.4164   -1.9929   -0.1155 N   0  0  0  0  0  0  0  0  0  0  0  0
   -1.4462   -2.6988   -1.3063 C   0  0  0  0  0  0  0  0  0  0  0  0
   -1.4142   -4.0579   -0.9675 C   0  0  0  0  0  0  0  0  0  0  0  0
   -1.4342   -5.0108   -1.9686 C   0  0  0  0  0  0  0  0  0  0  0  0
   -1.4864   -4.5699   -3.3005 C   0  0  0  0  0  0  0  0  0  0  0  0
   -1.5159   -3.1962   -3.5588 C   0  0  0  0  0  0  0  0  0  0  0  0
   -1.4949   -2.3222   -2.5761 N   0  0  0  0  0  0  0  0  0  0  0  0
   -1.5093   -5.5396   -4.4087 C   0  0  0  0  0  0  0  0  0  0  0  0
   -1.4828   -6.7395   -4.1721 O   0  0  0  0  0  0  0  0  0  0  0  0
   -1.5549   -5.1452   -5.5658 O   0  0  0  0  0  1  0  0  0  0  0  0
   -1.3659   -4.1272    0.4227 N   0  0  0  0  0  0  0  0  0  0  0  0
   -1.3635   -2.8695    0.9040 C   0  0  0  0  0  0  0  0  0  0  0  0
   -1.3227   -2.5709    2.0828 O   0  0  0  0  0  0  0  0  0  0  0  0
   -1.3207   -5.3543    1.2217 C   0  0  0  0  0  0  0  0  0  0  0  0
    0.1365   -5.7602    1.4510 C   0  0  0  0  0  0  0  0  0  0  0  0
    0.1837   -7.0417    2.2855 C   0  0  0  0  0  0  0  0  0  0  0  0
    1.5790   -7.4304    2.5050 N   0  0  0  0  0  0  0  0  0  0  0  0
    2.1617   -7.6554    3.7012 C   0  0  0  0  0  0  0  0  0  0  0  0
    3.4529   -7.9907    3.4745 C   0  0  0  0  0  0  0  0  0  0  0  0
    3.6667   -7.9698    2.0924 C   0  0  0  0  0  0  0  0  0  0  0  0
    2.5425   -7.6400    1.5099 N   0  0  0  0  0  0  0  0  0  0  0  0
    1.0039    1.9031    0.0027 H   0  0  0  0  0  0  0  0  0  0  0  0
   -0.5459    1.8868   -0.8726 H   0  0  0  0  0  0  0  0  0  0  0  0
   -0.5289    1.8773    0.9072 H   0  0  0  0  0  0  0  0  0  0  0  0
    0.5123   -0.3556   -0.8948 H   0  0  0  0  0  0  0  0  0  0  0  0
    0.2319   -0.1594    2.1383 H   0  0  0  0  0  0  0  0  0  0  0  0
    0.7568   -1.6008    1.2356 H   0  0  0  0  0  0  0  0  0  0  0  0
    1.7647   -0.1336    1.2338 H   0  0  0  0  0  0  0  0  0  0  0  0
   -1.9156   -0.2570    0.9504 H   0  0  0  0  0  0  0  0  0  0  0  0
   -1.9862   -0.1019   -0.8214 H   0  0  0  0  0  0  0  0  0  0  0  0
   -1.4099   -6.0645   -1.7330 H   0  0  0  0  0  0  0  0  0  0  0  0
   -1.5561   -2.8476   -4.5802 H   0  0  0  0  0  0  0  0  0  0  0  0
   -1.8049   -5.1801    2.1827 H   0  0  0  0  0  0  0  0  0  0  0  0
   -1.8412   -6.1522    0.6920 H   0  0  0  0  0  0  0  0  0  0  0  0
    0.6206   -5.9344    0.4900 H   0  0  0  0  0  0  0  0  0  0  0  0
    0.6569   -4.9623    1.9807 H   0  0  0  0  0  0  0  0  0  0  0  0
   -0.3004   -6.8675    3.2465 H   0  0  0  0  0  0  0  0  0  0  0  0
   -0.3367   -7.8396    1.7558 H   0  0  0  0  0  0  0  0  0  0  0  0
    1.6833   -7.5809    4.6666 H   0  0  0  0  0  0  0  0  0  0  0  0
    4.1887   -8.2312    4.2277 H   0  0  0  0  0  0  0  0  0  0  0  0
    4.5976   -8.1925    1.5921 H   0  0  0  0  0  0  0  0  0  0  0  0
  1  2  1  0  0  0  0
  1 26  1  0  0  0  0
  1 27  1  0  0  0  0
  1 28  1  0  0  0  0
  2  3  1  0  0  0  0
  2  4  1  0  0  0  0
  2 29  1  0  0  0  0
  3 30  1  0  0  0  0
  3 31  1  0  0  0  0
  3 32  1  0  0  0  0
  4  5  1  0  0  0  0
  4 33  1  0  0  0  0
  4 34  1  0  0  0  0
  5 16  1  0  0  0  0
  5  6  1  0  0  0  0
  6 11  2  0  0  0  0
  6  7  1  0  0  0  0
  7  8  2  0  0  0  0
  7 15  1  0  0  0  0
  8  9  1  0  0  0  0
  8 35  1  0  0  0  0
  9 10  2  0  0  0  0
  9 12  1  0  0  0  0
 10 11  1  0  0  0  0
 10 36  1  0  0  0  0
 12 13  2  0  0  0  0
 12 14  1  0  0  0  0
 15 16  1  0  0  0  0
 15 18  1  0  0  0  0
 16 17  2  0  0  0  0
 18 19  1  0  0  0  0
 18 37  1  0  0  0  0
 18 38  1  0  0  0  0
 19 20  1  0  0  0  0
 19 39  1  0  0  0  0
 19 40  1  0  0  0  0
 20 21  1  0  0  0  0
 20 41  1  0  0  0  0
 20 42  1  0  0  0  0
 21 25  1  0  0  0  0
 21 22  1  0  0  0  0
 22 23  2  0  0  0  0
 22 43  1  0  0  0  0
 23 24  1  0  0  0  0
 23 44  1  0  0  0  0
 24 25  2  0  0  0  0
 24 45  1  0  0  0  0
M  END
$$$$
ZINC39943619
 OpenBabel01252620473D

 34 36  0  0  1  0  0  0  0  0999 V2000
    1.3480   -0.3009    0.4500 C   0  0  0  0  0  0  0  0  0  0  0  0
    2.1486    0.9093    0.2346 N   0  0  0  0  0  0  0  0  0  0  0  0
    1.3953    1.8192   -0.2807 C   0  0  0  0  0  0  0  0  0  0  0  0
    0.0155    1.2962   -0.4573 C   0  0  0  0  0  0  0  0  0  0  0  0
   -0.8906    2.0989   -0.9753 N   0  0  0  0  0  0  0  0  0  0  0  0
   -0.5958    3.3482   -1.3367 C   0  0  0  0  0  0  0  0  0  0  0  0
    0.5979    3.9005   -1.2190 N   0  0  0  0  0  0  0  0  0  0  0  0
    1.6379    3.2281   -0.7104 C   0  0  0  0  0  0  0  0  0  0  0  0
    2.7363    3.7437   -0.6045 O   0  0  0  0  0  0  0  0  0  0  0  0
   -1.6021    4.1124   -1.8679 N   0  0  0  0  0  2  0  0  0  0  0  0
   -0.0126    0.0072   -0.0129 N   0  0  0  0  0  0  0  0  0  0  0  0
   -1.1693   -0.8917    0.0010 C   0  0  2  0  0  0  0  0  0  0  0  0
   -1.8305   -0.6562   -0.8330 H   0  0  0  0  0  0  0  0  0  0  0  0
   -1.9336   -0.7412    1.3338 C   0  0  1  0  0  0  0  0  0  0  0  0
   -3.0084   -0.8329    1.1772 H   0  0  0  0  0  0  0  0  0  0  0  0
   -1.3916   -1.9383    2.1615 C   0  0  1  0  0  0  0  0  0  0  0  0
   -2.1275   -2.2768    2.8910 H   0  0  0  0  0  0  0  0  0  0  0  0
   -1.1823   -2.9951    1.0479 C   0  0  1  0  0  0  0  0  0  0  0  0
   -2.1223   -3.4989    0.8229 H   0  0  0  0  0  0  0  0  0  0  0  0
   -0.7293   -2.2513   -0.0967 O   0  0  0  0  0  0  0  0  0  0  0  0
   -0.1237   -4.0140    1.4748 C   0  0  0  0  0  0  0  0  0  0  0  0
   -0.0283   -5.0435    0.4884 O   0  0  0  0  0  0  0  0  0  0  0  0
   -0.1555   -1.6072    2.7974 O   0  0  0  0  0  0  0  0  0  0  0  0
   -1.5310    0.8449    2.1371 P   0  0  0  0  0  0  0  0  0  0  0  0
    0.0204    0.9560    2.3253 O   0  0  0  0  0  0  0  0  0  0  0  0
   -2.0342    2.0270    1.2405 O   0  0  0  0  0  1  0  0  0  0  0  0
   -2.2330    0.9150    3.5359 O   0  0  0  0  0  1  0  0  0  0  0  0
    1.7602   -1.1287   -0.1271 H   0  0  0  0  0  0  0  0  0  0  0  0
    1.3332   -0.5550    1.5098 H   0  0  0  0  0  0  0  0  0  0  0  0
   -1.4245    5.0258   -2.1420 H   0  0  0  0  0  0  0  0  0  0  0  0
    0.8406   -3.5158    1.5747 H   0  0  0  0  0  0  0  0  0  0  0  0
   -0.4068   -4.4527    2.4317 H   0  0  0  0  0  0  0  0  0  0  0  0
    0.6254   -5.7258    0.6939 H   0  0  0  0  0  0  0  0  0  0  0  0
    0.2200   -2.3251    3.3253 H   0  0  0  0  0  0  0  0  0  0  0  0
  1 11  1  0  0  0  0
  1  2  1  0  0  0  0
  1 28  1  0  0  0  0
  1 29  1  0  0  0  0
  2  3  2  0  0  0  0
  3  8  1  0  0  0  0
  3  4  1  0  0  0  0
  4  5  2  0  0  0  0
  4 11  1  0  0  0  0
  5  6  1  0  0  0  0
  6  7  2  0  0  0  0
  6 10  1  0  0  0  0
  7  8  1  0  0  0  0
  8  9  2  0  0  0  0
 10 30  1  0  0  0  0
 11 12  1  0  0  0  0
 12 13  1  6  0  0  0
 12 20  1  0  0  0  0
 12 14  1  0  0  0  0
 14 15  1  6  0  0  0
 14 16  1  0  0  0  0
 14 24  1  0  0  0  0
 16 17  1  1  0  0  0
 16 18  1  0  0  0  0
 16 23  1  0  0  0  0
 18 19  1  6  0  0  0
 18 20  1  0  0  0  0
 18 21  1  0  0  0  0
 21 22  1  0  0  0  0
 21 31  1  0  0  0  0
 21 32  1  0  0  0  0
 22 33  1  0  0  0  0
 23 34  1  0  0  0  0
 24 25  2  0  0  0  0
 24 26  1  0  0  0  0
 24 27  1  0  0  0  0
M  END
$$$$
ZINC20015913
 OpenBabel01252620473D

 30 31  0  0  0  0  0  0  0  0999 V2000
   -1.1868   -3.1359   -1.0256 C   0  0  0  0  0  0  0  0  0  0  0  0
   -1.7238   -3.1415   -2.3010 C   0  0  0  0  0  0  0  0  0  0  0  0
   -1.3196   -2.2026   -3.2270 C   0  0  0  0  0  0  0  0  0  0  0  0
   -0.3665   -1.2446   -2.8747 C   0  0  0  0  0  0  0  0  0  0  0  0
    0.1707   -1.2445   -1.5861 C   0  0  0  0  0  0  0  0  0  0  0  0
   -0.2388   -2.1927   -0.6714 C   0  0  0  0  0  0  0  0  0  0  0  0
    1.2001   -0.2149   -1.1970 C   0  0  0  0  0  0  0  0  0  0  0  0
    0.3669    1.2479   -0.5214 S   0  0  0  0  0  0  0  0  0  0  0  0
   -0.2753    1.9702   -1.5631 O   0  0  0  0  0  0  0  0  0  0  0  0
   -0.3380    0.9058    0.6641 O   0  0  0  0  0  0  0  0  0  0  0  0
    1.5924    2.2390   -0.0133 N   0  0  0  0  0  2  0  0  0  0  0  0
    2.4420    1.8276    1.0161 C   0  0  0  0  0  0  0  0  0  0  0  0
    1.9990    1.8450    2.3323 C   0  0  0  0  0  0  0  0  0  0  0  0
    2.8403    1.4315    3.3496 C   0  0  0  0  0  0  0  0  0  0  0  0
    4.1269    1.0109    3.0576 C   0  0  0  0  0  0  0  0  0  0  0  0
    4.5727    0.9986    1.7466 C   0  0  0  0  0  0  0  0  0  0  0  0
    3.7329    1.4058    0.7255 C   0  0  0  0  0  0  0  0  0  0  0  0
    5.8286    0.5882    1.4646 F   0  0  0  0  0  0  0  0  0  0  0  0
    2.4081    1.4430    4.6296 F   0  0  0  0  0  0  0  0  0  0  0  0
    0.0582   -0.2670   -3.8311 C   0  0  0  0  0  0  0  0  0  0  0  0
    0.3952    0.5085   -4.5897 N   0  0  0  0  0  0  0  0  0  0  0  0
   -1.5064   -3.8739   -0.3047 H   0  0  0  0  0  0  0  0  0  0  0  0
   -2.4608   -3.8830   -2.5721 H   0  0  0  0  0  0  0  0  0  0  0  0
   -1.7389   -2.2085   -4.2222 H   0  0  0  0  0  0  0  0  0  0  0  0
    0.1790   -2.1964    0.3245 H   0  0  0  0  0  0  0  0  0  0  0  0
    1.8725   -0.6380   -0.4361 H   0  0  0  0  0  0  0  0  0  0  0  0
    1.7844    0.0727   -2.0835 H   0  0  0  0  0  0  0  0  0  0  0  0
    0.9971    2.1772    2.5609 H   0  0  0  0  0  0  0  0  0  0  0  0
    4.7838    0.6924    3.8535 H   0  0  0  0  0  0  0  0  0  0  0  0
    4.0808    1.3953   -0.2969 H   0  0  0  0  0  0  0  0  0  0  0  0
  1  6  2  0  0  0  0
  1  2  1  0  0  0  0
  1 22  1  0  0  0  0
  2  3  2  0  0  0  0
  2 23  1  0  0  0  0
  3  4  1  0  0  0  0
  3 24  1  0  0  0  0
  4  5  2  0  0  0  0
  4 20  1  0  0  0  0
  5  6  1  0  0  0  0
  5  7  1  0  0  0  0
  6 25  1  0  0  0  0
  7  8  1  0  0  0  0
  7 26  1  0  0  0  0
  7 27  1  0  0  0  0
  8  9  2  0  0  0  0
  8 10  2  0  0  0  0
  8 11  1  0  0  0  0
 11 12  1  0  0  0  0
 12 17  2  0  0  0  0
 12 13  1  0  0  0  0
 13 14  2  0  0  0  0
 13 28  1  0  0  0  0
 14 15  1  0  0  0  0
 14 19  1  0  0  0  0
 15 16  2  0  0  0  0
 15 29  1  0  0  0  0
 16 17  1  0  0  0  0
 16 18  1  0  0  0  0
 17 30  1  0  0  0  0
 20 21  3  0  0  0  0
M  END
$$$$
ZINC40028572
 OpenBabel01252620473D

 54 56  0  0  1  0  0  0  0  0999 V2000
    0.0131    1.9126   -0.4512 C   0  0  0  0  0  0  0  0  0  0  0  0
    1.0745    0.8841   -0.7451 C   0  0  0  0  0  0  0  0  0  0  0  0
    0.9486   -0.0228   -1.7912 C   0  0  0  0  0  0  0  0  0  0  0  0
    2.4752   -0.9332   -1.6174 S   0  0  0  0  0  0  0  0  0  0  0  0
    3.0911   -0.1032   -0.2893 C   0  0  0  0  0  0  0  0  0  0  0  0
    2.1699    0.7977   -0.0331 N   0  0  0  0  0  0  0  0  0  0  0  0
    4.3939   -0.3349    0.4319 C   0  0  0  0  0  0  0  0  0  0  0  0
   -0.1355   -0.1865   -2.7651 C   0  0  0  0  0  0  0  0  0  0  0  0
   -1.1455    0.4881   -2.6715 O   0  0  0  0  0  0  0  0  0  0  0  0
   -0.0035   -1.1632   -3.8529 C   0  0  0  0  0  0  0  0  0  0  0  0
    0.0944   -0.8907   -5.1740 C   0  0  0  0  0  0  0  0  0  0  0  0
    0.2117   -2.1576   -5.9241 C   0  0  0  0  0  0  0  0  0  0  0  0
    0.3162   -2.2458   -7.1315 O   0  0  0  0  0  0  0  0  0  0  0  0
    0.1863   -3.1994   -5.0732 N   0  0  0  0  0  0  0  0  0  0  0  0
    0.0558   -2.6663   -3.7120 C   0  0  2  0  0  0  0  0  0  0  0  0
    0.9187   -2.9527   -3.1108 H   0  0  0  0  0  0  0  0  0  0  0  0
   -1.2117   -3.1778   -3.0774 C   0  0  0  0  0  0  0  0  0  0  0  0
   -2.3603   -3.3085   -3.8354 C   0  0  0  0  0  0  0  0  0  0  0  0
   -3.5230   -3.7776   -3.2532 C   0  0  0  0  0  0  0  0  0  0  0  0
   -3.5370   -4.1165   -1.9131 C   0  0  0  0  0  0  0  0  0  0  0  0
   -2.3882   -3.9866   -1.1553 C   0  0  0  0  0  0  0  0  0  0  0  0
   -1.2244   -3.5215   -1.7385 C   0  0  0  0  0  0  0  0  0  0  0  0
   -4.8048   -4.6270   -1.2782 C   0  0  0  0  0  0  0  0  0  0  0  0
   -5.2510   -5.9069   -1.9878 C   0  0  0  0  0  0  0  0  0  0  0  0
   -4.5501   -4.9259    0.2005 C   0  0  0  0  0  0  0  0  0  0  0  0
   -5.9005   -3.5664   -1.4028 C   0  0  0  0  0  0  0  0  0  0  0  0
    0.2777   -4.6148   -5.4400 C   0  0  0  0  0  0  0  0  0  0  0  0
    1.7237   -5.0392   -5.4481 C   0  0  0  0  0  0  0  0  0  0  0  0
    2.1102   -6.0622   -4.7267 C   0  0  0  0  0  0  0  0  0  0  0  0
    0.0862    0.3471   -5.7220 O   0  5  0  0  0  0  0  0  0  0  0  0
    0.2222    2.8219   -1.0149 H   0  0  0  0  0  0  0  0  0  0  0  0
   -0.9621    1.5215   -0.7413 H   0  0  0  0  0  0  0  0  0  0  0  0
    0.0114    2.1385    0.6151 H   0  0  0  0  0  0  0  0  0  0  0  0
    5.1752    0.2723   -0.0252 H   0  0  0  0  0  0  0  0  0  0  0  0
    4.2836   -0.0561    1.4799 H   0  0  0  0  0  0  0  0  0  0  0  0
    4.6651   -1.3883    0.3628 H   0  0  0  0  0  0  0  0  0  0  0  0
   -2.3493   -3.0437   -4.8824 H   0  0  0  0  0  0  0  0  0  0  0  0
   -4.4205   -3.8791   -3.8453 H   0  0  0  0  0  0  0  0  0  0  0  0
   -2.3993   -4.2510   -0.1082 H   0  0  0  0  0  0  0  0  0  0  0  0
   -0.3259   -3.4236   -1.1473 H   0  0  0  0  0  0  0  0  0  0  0  0
   -4.4704   -6.6625   -1.8991 H   0  0  0  0  0  0  0  0  0  0  0  0
   -6.1680   -6.2762   -1.5286 H   0  0  0  0  0  0  0  0  0  0  0  0
   -5.4324   -5.6940   -3.0413 H   0  0  0  0  0  0  0  0  0  0  0  0
   -4.2323   -4.0141    0.7060 H   0  0  0  0  0  0  0  0  0  0  0  0
   -5.4671   -5.2952    0.6597 H   0  0  0  0  0  0  0  0  0  0  0  0
   -3.7695   -5.6815    0.2892 H   0  0  0  0  0  0  0  0  0  0  0  0
   -6.0819   -3.3534   -2.4563 H   0  0  0  0  0  0  0  0  0  0  0  0
   -6.8175   -3.9356   -0.9436 H   0  0  0  0  0  0  0  0  0  0  0  0
   -5.5826   -2.6545   -0.8973 H   0  0  0  0  0  0  0  0  0  0  0  0
   -0.2728   -5.2143   -4.7150 H   0  0  0  0  0  0  0  0  0  0  0  0
   -0.1495   -4.7615   -6.4320 H   0  0  0  0  0  0  0  0  0  0  0  0
    2.4414   -4.5000   -6.0486 H   0  0  0  0  0  0  0  0  0  0  0  0
    1.3925   -6.6013   -4.1262 H   0  0  0  0  0  0  0  0  0  0  0  0
    3.1464   -6.3663   -4.7325 H   0  0  0  0  0  0  0  0  0  0  0  0
  1  2  1  0  0  0  0
  1 31  1  0  0  0  0
  1 32  1  0  0  0  0
  1 33  1  0  0  0  0
  2  6  1  0  0  0  0
  2  3  2  0  0  0  0
  3  4  1  0  0  0  0
  3  8  1  0  0  0  0
  4  5  1  0  0  0  0
  5  6  2  0  0  0  0
  5  7  1  0  0  0  0
  7 34  1  0  0  0  0
  7 35  1  0  0  0  0
  7 36  1  0  0  0  0
  8  9  2  0  0  0  0
  8 10  1  0  0  0  0
 10 15  1  0  0  0  0
 10 11  2  0  0  0  0
 11 12  1  0  0  0  0
 11 30  1  0  0  0  0
 12 13  2  0  0  0  0
 12 14  1  0  0  0  0
 14 15  1  0  0  0  0
 14 27  1  0  0  0  0
 15 16  1  1  0  0  0
 15 17  1  0  0  0  0
 17 22  2  0  0  0  0
 17 18  1  0  0  0  0
 18 19  2  0  0  0  0
 18 37  1  0  0  0  0
 19 20  1  0  0  0  0
 19 38  1  0  0  0  0
 20 21  2  0  0  0  0
 20 23  1  0  0  0  0
 21 22  1  0  0  0  0
 21 39  1  0  0  0  0
 22 40  1  0  0  0  0
 23 24  1  0  0  0  0
 23 25  1  0  0  0  0
 23 26  1  0  0  0  0
 24 41  1  0  0  0  0
 24 42  1  0  0  0  0
 24 43  1  0  0  0  0
 25 44  1  0  0  0  0
 25 45  1  0  0  0  0
 25 46  1  0  0  0  0
 26 47  1  0  0  0  0
 26 48  1  0  0  0  0
 26 49  1  0  0  0  0
 27 28  1  0  0  0  0
 27 50  1  0  0  0  0
 27 51  1  0  0  0  0
 28 29  2  0  0  0  0
 28 52  1  0  0  0  0
 29 53  1  0  0  0  0
 29 54  1  0  0  0  0
M  CHG  1  30  -1
M  END
$$$$
ZINC40100845
 OpenBabel01252620473D

 47 49  0  0  1  0  0  0  0  0999 V2000
   -0.9211    1.9048   -4.0341 C   0  0  0  0  0  0  0  0  0  0  0  0
   -1.0456    0.4221   -4.3906 C   0  0  0  0  0  0  0  0  0  0  0  0
    0.1125   -0.2773   -3.9305 O   0  0  0  0  0  0  0  0  0  0  0  0
    0.1611   -1.6144   -4.1689 C   0  0  0  0  0  0  0  0  0  0  0  0
   -0.8838   -2.2386   -4.8379 C   0  0  0  0  0  0  0  0  0  0  0  0
   -0.8403   -3.5987   -5.0830 C   0  0  0  0  0  0  0  0  0  0  0  0
    0.2419   -4.3453   -4.6645 C   0  0  0  0  0  0  0  0  0  0  0  0
    1.2975   -3.7267   -3.9915 C   0  0  0  0  0  0  0  0  0  0  0  0
    1.2546   -2.3524   -3.7498 C   0  0  0  0  0  0  0  0  0  0  0  0
    2.4591   -4.5234   -3.5413 C   0  0  0  0  0  0  0  0  0  0  0  0
    3.4136   -3.9706   -3.0279 O   0  0  0  0  0  0  0  0  0  0  0  0
    2.4605   -5.9790   -3.7136 C   0  0  0  0  0  0  0  0  0  0  0  0
    3.2893   -6.6973   -4.5071 C   0  0  0  0  0  0  0  0  0  0  0  0
    2.9533   -8.1319   -4.3876 C   0  0  0  0  0  0  0  0  0  0  0  0
    3.5186   -9.0319   -4.9763 O   0  0  0  0  0  0  0  0  0  0  0  0
    1.9292   -8.2937   -3.5301 N   0  0  0  0  0  0  0  0  0  0  0  0
    1.5414   -6.9677   -3.0349 C   0  0  1  0  0  0  0  0  0  0  0  0
    0.5050   -6.7592   -3.3004 H   0  0  0  0  0  0  0  0  0  0  0  0
    1.7183   -6.8975   -1.5400 C   0  0  0  0  0  0  0  0  0  0  0  0
    2.9630   -7.1178   -0.9803 C   0  0  0  0  0  0  0  0  0  0  0  0
    3.1257   -7.0531    0.3907 C   0  0  0  0  0  0  0  0  0  0  0  0
    2.0429   -6.7680    1.2029 C   0  0  0  0  0  0  0  0  0  0  0  0
    0.7976   -6.5477    0.6424 C   0  0  0  0  0  0  0  0  0  0  0  0
    0.6369   -6.6074   -0.7291 C   0  0  0  0  0  0  0  0  0  0  0  0
    2.2647   -6.6800    3.0787 Br  0  0  0  0  0  0  0  0  0  0  0  0
    1.3135   -9.5685   -3.1535 C   0  0  0  0  0  0  0  0  0  0  0  0
    2.1461  -10.2321   -2.0547 C   0  0  0  0  0  0  0  0  0  0  0  0
    2.0173   -9.4857   -0.8430 O   0  0  0  0  0  0  0  0  0  0  0  0
    4.2689   -6.1838   -5.2861 O   0  5  0  0  0  0  0  0  0  0  0  0
   -0.8372    2.0127   -2.9527 H   0  0  0  0  0  0  0  0  0  0  0  0
   -0.0330    2.3197   -4.5107 H   0  0  0  0  0  0  0  0  0  0  0  0
   -1.8045    2.4382   -4.3851 H   0  0  0  0  0  0  0  0  0  0  0  0
   -1.9338    0.0071   -3.9140 H   0  0  0  0  0  0  0  0  0  0  0  0
   -1.1295    0.3142   -5.4720 H   0  0  0  0  0  0  0  0  0  0  0  0
   -1.7337   -1.6594   -5.1676 H   0  0  0  0  0  0  0  0  0  0  0  0
   -1.6562   -4.0783   -5.6034 H   0  0  0  0  0  0  0  0  0  0  0  0
    0.2723   -5.4076   -4.8569 H   0  0  0  0  0  0  0  0  0  0  0  0
    2.0698   -1.8675   -3.2334 H   0  0  0  0  0  0  0  0  0  0  0  0
    3.8083   -7.3408   -1.6144 H   0  0  0  0  0  0  0  0  0  0  0  0
    4.0981   -7.2256    0.8279 H   0  0  0  0  0  0  0  0  0  0  0  0
   -0.0481   -6.3250    1.2761 H   0  0  0  0  0  0  0  0  0  0  0  0
   -0.3345   -6.4313   -1.1671 H   0  0  0  0  0  0  0  0  0  0  0  0
    0.3032   -9.3894   -2.7856 H   0  0  0  0  0  0  0  0  0  0  0  0
    1.2725  -10.2234   -4.0239 H   0  0  0  0  0  0  0  0  0  0  0  0
    1.7905  -11.2499   -1.8940 H   0  0  0  0  0  0  0  0  0  0  0  0
    3.1931  -10.2565   -2.3569 H   0  0  0  0  0  0  0  0  0  0  0  0
    2.5199   -9.8497   -0.1014 H   0  0  0  0  0  0  0  0  0  0  0  0
  1  2  1  0  0  0  0
  1 30  1  0  0  0  0
  1 31  1  0  0  0  0
  1 32  1  0  0  0  0
  2  3  1  0  0  0  0
  2 33  1  0  0  0  0
  2 34  1  0  0  0  0
  3  4  1  0  0  0  0
  4  9  2  0  0  0  0
  4  5  1  0  0  0  0
  5  6  2  0  0  0  0
  5 35  1  0  0  0  0
  6  7  1  0  0  0  0
  6 36  1  0  0  0  0
  7  8  2  0  0  0  0
  7 37  1  0  0  0  0
  8  9  1  0  0  0  0
  8 10  1  0  0  0  0
  9 38  1  0  0  0  0
 10 11  2  0  0  0  0
 10 12  1  0  0  0  0
 12 17  1  0  0  0  0
 12 13  2  0  0  0  0
 13 14  1  0  0  0  0
 13 29  1  0  0  0  0
 14 15  2  0  0  0  0
 14 16  1  0  0  0  0
 16 17  1  0  0  0  0
 16 26  1  0  0  0  0
 17 18  1  6  0  0  0
 17 19  1  0  0  0  0
 19 24  2  0  0  0  0
 19 20  1  0  0  0  0
 20 21  2  0  0  0  0
 20 39  1  0  0  0  0
 21 22  1  0  0  0  0
 21 40  1  0  0  0  0
 22 23  2  0  0  0  0
 22 25  1  0  0  0  0
 23 24  1  0  0  0  0
 23 41  1  0  0  0  0
 24 42  1  0  0  0  0
 26 27  1  0  0  0  0
 26 43  1  0  0  0  0
 26 44  1  0  0  0  0
 27 28  1  0  0  0  0
 27 45  1  0  0  0  0
 27 46  1  0  0  0  0
 28 47  1  0  0  0  0
M  CHG  1  29  -1
M  END
$$$$
ZINC61150479
 OpenBabel01252620473D

 37 37  0  0  0  0  0  0  0  0999 V2000
   -1.4133   -0.3812   -0.1943 C   0  0  0  0  0  0  0  0  0  0  0  0
    0.0516    0.0352   -0.0477 C   0  0  0  0  0  0  0  0  0  0  0  0
    0.1556    1.5608   -0.0990 C   0  0  0  0  0  0  0  0  0  0  0  0
    0.5852   -0.4606    1.2715 C   0  0  0  0  0  0  0  0  0  0  0  0
    1.4618   -1.3077    1.2949 O   0  0  0  0  0  0  0  0  0  0  0  0
    0.1403   -0.0147    2.3154 O   0  0  0  0  0  1  0  0  0  0  0  0
    0.8359   -0.5447   -1.1408 N   0  0  0  0  0  0  0  0  0  0  0  0
    0.1849   -1.4013   -2.1351 C   0  0  0  0  0  0  0  0  0  0  0  0
    2.1563   -0.2902   -1.2316 C   0  0  0  0  0  0  0  0  0  0  0  0
    2.6952    0.4189   -0.4084 O   0  0  0  0  0  0  0  0  0  0  0  0
    2.9630   -0.8868   -2.3560 C   0  0  0  0  0  0  0  0  0  0  0  0
    4.3600   -0.4633   -2.2328 N   0  0  0  0  0  0  0  0  0  0  0  0
    5.2719   -0.8778   -3.1346 C   0  0  0  0  0  0  0  0  0  0  0  0
    4.9352   -1.6032   -4.0500 O   0  0  0  0  0  0  0  0  0  0  0  0
    6.6813   -0.4506   -3.0103 C   0  0  0  0  0  0  0  0  0  0  0  0
    7.0723    0.3778   -1.9567 C   0  0  0  0  0  0  0  0  0  0  0  0
    8.3888    0.7731   -1.8462 C   0  0  0  0  0  0  0  0  0  0  0  0
    9.3223    0.3502   -2.7775 C   0  0  0  0  0  0  0  0  0  0  0  0
    8.9406   -0.4715   -3.8247 C   0  0  0  0  0  0  0  0  0  0  0  0
    7.6282   -0.8783   -3.9428 C   0  0  0  0  0  0  0  0  0  0  0  0
   11.1254    0.8974   -2.6189 Br  0  0  0  0  0  0  0  0  0  0  0  0
   -1.7993   -0.0226   -1.1485 H   0  0  0  0  0  0  0  0  0  0  0  0
   -1.4875   -1.4681   -0.1578 H   0  0  0  0  0  0  0  0  0  0  0  0
   -1.9969    0.0503    0.6189 H   0  0  0  0  0  0  0  0  0  0  0  0
   -0.4279    1.9923    0.7143 H   0  0  0  0  0  0  0  0  0  0  0  0
    1.1993    1.8575    0.0055 H   0  0  0  0  0  0  0  0  0  0  0  0
   -0.2303    1.9195   -1.0532 H   0  0  0  0  0  0  0  0  0  0  0  0
   -0.1245   -0.7974   -2.9882 H   0  0  0  0  0  0  0  0  0  0  0  0
    0.8843   -2.1683   -2.4676 H   0  0  0  0  0  0  0  0  0  0  0  0
   -0.6895   -1.8755   -1.6895 H   0  0  0  0  0  0  0  0  0  0  0  0
    2.9073   -1.9742   -2.3060 H   0  0  0  0  0  0  0  0  0  0  0  0
    2.5629   -0.5460   -3.3109 H   0  0  0  0  0  0  0  0  0  0  0  0
    4.6288    0.1155   -1.5023 H   0  0  0  0  0  0  0  0  0  0  0  0
    6.3451    0.7086   -1.2300 H   0  0  0  0  0  0  0  0  0  0  0  0
    8.6924    1.4142   -1.0318 H   0  0  0  0  0  0  0  0  0  0  0  0
    9.6731   -0.7979   -4.5482 H   0  0  0  0  0  0  0  0  0  0  0  0
    7.3326   -1.5228   -4.7574 H   0  0  0  0  0  0  0  0  0  0  0  0
  1  2  1  0  0  0  0
  1 22  1  0  0  0  0
  1 23  1  0  0  0  0
  1 24  1  0  0  0  0
  2  3  1  0  0  0  0
  2  4  1  0  0  0  0
  2  7  1  0  0  0  0
  3 25  1  0  0  0  0
  3 26  1  0  0  0  0
  3 27  1  0  0  0  0
  4  5  2  0  0  0  0
  4  6  1  0  0  0  0
  7  8  1  0  0  0  0
  7  9  1  0  0  0  0
  8 28  1  0  0  0  0
  8 29  1  0  0  0  0
  8 30  1  0  0  0  0
  9 10  2  0  0  0  0
  9 11  1  0  0  0  0
 11 12  1  0  0  0  0
 11 31  1  0  0  0  0
 11 32  1  0  0  0  0
 12 13  1  0  0  0  0
 12 33  1  0  0  0  0
 13 14  2  0  0  0  0
 13 15  1  0  0  0  0
 15 20  2  0  0  0  0
 15 16  1  0  0  0  0
 16 17  2  0  0  0  0
 16 34  1  0  0  0  0
 17 18  1  0  0  0  0
 17 35  1  0  0  0  0
 18 19  2  0  0  0  0
 18 21  1  0  0  0  0
 19 20  1  0  0  0  0
 19 36  1  0  0  0  0
 20 37  1  0  0  0  0
M  END
$$$$
ZINC63858009
 OpenBabel01252620473D

 49 50  0  0  0  0  0  0  0  0999 V2000
   -0.9880    1.8668   -2.1390 C   0  0  0  0  0  0  0  0  0  0  0  0
   -1.3816    1.0212   -0.9262 C   0  0  0  0  0  0  0  0  0  0  0  0
   -2.1754   -0.0868   -1.3555 O   0  0  0  0  0  0  0  0  0  0  0  0
   -2.6074   -0.9367   -0.4014 C   0  0  0  0  0  0  0  0  0  0  0  0
   -2.3175   -0.7414    0.7633 O   0  0  0  0  0  0  0  0  0  0  0  0
   -3.4266   -2.0958   -0.7686 C   0  0  0  0  0  0  0  0  0  0  0  0
   -3.9305   -3.0252    0.0952 C   0  0  0  0  0  0  0  0  0  0  0  0
   -4.6538   -3.9587   -0.6777 C   0  0  0  0  0  0  0  0  0  0  0  0
   -4.5601   -3.5556   -1.9954 C   0  0  0  0  0  0  0  0  0  0  0  0
   -3.8253   -2.4313   -2.0443 N   0  0  0  0  0  0  0  0  0  0  0  0
   -3.6085   -1.9360   -2.8496 H   0  0  0  0  0  0  0  0  0  0  0  0
   -5.1815   -4.2545   -3.1772 C   0  0  0  0  0  0  0  0  0  0  0  0
   -5.3751   -5.1444   -0.1723 C   0  0  0  0  0  0  0  0  0  0  0  0
   -4.7821   -6.1988   -0.0175 O   0  0  0  0  0  0  0  0  0  0  0  0
   -6.7504   -5.0572    0.1316 C   0  0  0  0  0  0  0  0  0  0  0  0
   -7.4602   -6.2025    0.4789 C   0  0  0  0  0  0  0  0  0  0  0  0
   -6.8658   -7.4323    0.3813 N   0  0  0  0  0  0  0  0  0  0  0  0
   -7.6522   -8.6464    0.6130 C   0  0  0  0  0  0  0  0  0  0  0  0
   -9.1238   -6.0704    1.0441 S   0  0  0  0  0  1  0  0  0  0  0  0
   -7.3897   -3.8392    0.0845 N   0  0  0  0  0  0  0  0  0  0  0  0
   -7.2596   -3.0004    1.1034 C   0  0  0  0  0  3  0  0  0  0  0  0
   -7.8894   -1.7673    1.0866 C   0  0  0  0  0  0  0  0  0  0  0  0
   -8.6640   -1.4165   -0.0163 C   0  0  0  0  0  0  0  0  0  0  0  0
   -8.7756   -2.3207   -1.0615 C   0  0  0  0  0  0  0  0  0  0  0  0
   -8.1165   -3.5308   -0.9813 C   0  0  0  0  0  0  0  0  0  0  0  0
   -8.2284   -4.5158   -2.1163 C   0  0  0  0  0  0  0  0  0  0  0  0
   -7.7538   -0.9107    2.1330 O   0  5  0  0  0  0  0  0  0  0  0  0
   -3.7481   -3.0501    1.5909 C   0  0  0  0  0  0  0  0  0  0  0  0
   -0.3825    2.7119   -1.8116 H   0  0  0  0  0  0  0  0  0  0  0  0
   -0.4136    1.2568   -2.8363 H   0  0  0  0  0  0  0  0  0  0  0  0
   -1.8874    2.2340   -2.6333 H   0  0  0  0  0  0  0  0  0  0  0  0
   -0.4822    0.6539   -0.4320 H   0  0  0  0  0  0  0  0  0  0  0  0
   -1.9560    1.6311   -0.2290 H   0  0  0  0  0  0  0  0  0  0  0  0
   -6.1454   -3.7987   -3.4032 H   0  0  0  0  0  0  0  0  0  0  0  0
   -4.5238   -4.1612   -4.0415 H   0  0  0  0  0  0  0  0  0  0  0  0
   -5.3245   -5.3091   -2.9417 H   0  0  0  0  0  0  0  0  0  0  0  0
   -5.9241   -7.4995    0.1588 H   0  0  0  0  0  0  0  0  0  0  0  0
   -8.0574   -8.6293    1.6248 H   0  0  0  0  0  0  0  0  0  0  0  0
   -8.4707   -8.6918   -0.1054 H   0  0  0  0  0  0  0  0  0  0  0  0
   -7.0137   -9.5215    0.4921 H   0  0  0  0  0  0  0  0  0  0  0  0
   -6.6570   -3.2817    1.9543 H   0  0  0  0  0  0  0  0  0  0  0  0
   -9.1669   -0.4616   -0.0564 H   0  0  0  0  0  0  0  0  0  0  0  0
   -9.3690   -2.0791   -1.9310 H   0  0  0  0  0  0  0  0  0  0  0  0
   -9.0831   -5.1706   -1.9462 H   0  0  0  0  0  0  0  0  0  0  0  0
   -8.3649   -3.9763   -3.0535 H   0  0  0  0  0  0  0  0  0  0  0  0
   -7.3182   -5.1131   -2.1700 H   0  0  0  0  0  0  0  0  0  0  0  0
   -4.5546   -2.4904    2.0646 H   0  0  0  0  0  0  0  0  0  0  0  0
   -3.7667   -4.0818    1.9421 H   0  0  0  0  0  0  0  0  0  0  0  0
   -2.7910   -2.5961    1.8478 H   0  0  0  0  0  0  0  0  0  0  0  0
  1  2  1  0  0  0  0
  1 29  1  0  0  0  0
  1 30  1  0  0  0  0
  1 31  1  0  0  0  0
  2  3  1  0  0  0  0
  2 32  1  0  0  0  0
  2 33  1  0  0  0  0
  3  4  1  0  0  0  0
  4  5  2  0  0  0  0
  4  6  1  0  0  0  0
  6 10  1  0  0  0  0
  6  7  2  0  0  0  0
  7  8  1  0  0  0  0
  7 28  1  0  0  0  0
  8  9  2  0  0  0  0
  8 13  1  0  0  0  0
  9 10  1  0  0  0  0
  9 12  1  0  0  0  0
 10 11  1  0  0  0  0
 12 34  1  0  0  0  0
 12 35  1  0  0  0  0
 12 36  1  0  0  0  0
 13 14  2  0  0  0  0
 13 15  1  0  0  0  0
 15 16  2  0  0  0  0
 15 20  1  0  0  0  0
 16 17  1  0  0  0  0
 16 19  1  0  0  0  0
 17 18  1  0  0  0  0
 17 37  1  0  0  0  0
 18 38  1  0  0  0  0
 18 39  1  0  0  0  0
 18 40  1  0  0  0  0
 20 25  1  0  0  0  0
 20 21  1  0  0  0  0
 21 22  1  0  0  0  0
 21 41  1  0  0  0  0
 22 23  2  0  0  0  0
 22 27  1  0  0  0  0
 23 24  1  0  0  0  0
 23 42  1  0  0  0  0
 24 25  2  0  0  0  0
 24 43  1  0  0  0  0
 25 26  1  0  0  0  0
 26 44  1  0  0  0  0
 26 45  1  0  0  0  0
 26 46  1  0  0  0  0
 28 47  1  0  0  0  0
 28 48  1  0  0  0  0
 28 49  1  0  0  0  0
M  CHG  1  27  -1
M  END
$$$$
ZINC62219087
 OpenBabel01252620473D

 34 35  0  0  0  0  0  0  0  0999 V2000
   -0.0184    1.5028    0.0103 C   0  0  0  0  0  0  0  0  0  0  0  0
    0.0021   -0.0041    0.0020 C   0  0  0  0  0  0  0  0  0  0  0  0
    0.0082   -0.8123   -1.0839 C   0  0  0  0  0  0  0  0  0  0  0  0
    0.0273   -2.0682   -0.6237 N   0  0  0  0  0  0  0  0  0  0  0  0
    0.0327   -2.0444    0.6621 N   0  0  0  0  0  0  0  0  0  0  0  0
    0.0240   -0.8285    1.0849 N   0  0  0  0  0  0  0  0  0  0  0  0
    0.0323   -0.4237    2.4276 C   0  0  0  0  0  0  0  0  0  0  0  0
    0.7052    0.7314    2.8017 C   0  0  0  0  0  0  0  0  0  0  0  0
    0.7116    1.1275    4.1249 C   0  0  0  0  0  0  0  0  0  0  0  0
    0.0490    0.3745    5.0767 C   0  0  0  0  0  0  0  0  0  0  0  0
   -0.6218   -0.7769    4.7071 C   0  0  0  0  0  0  0  0  0  0  0  0
   -0.6373   -1.1744    3.3844 C   0  0  0  0  0  0  0  0  0  0  0  0
    0.0583    0.8091    6.5196 C   0  0  0  0  0  0  0  0  0  0  0  0
   -1.1190    1.7132    6.7795 C   0  0  0  0  0  0  0  0  0  0  0  0
   -1.8938    1.9799    5.8767 O   0  0  0  0  0  0  0  0  0  0  0  0
   -1.2967    2.1780    7.8926 O   0  0  0  0  0  1  0  0  0  0  0  0
   -0.0044   -0.3817   -2.5280 C   0  0  0  0  0  0  0  0  0  0  0  0
    1.4336   -0.2159   -3.0234 C   0  0  0  0  0  0  0  0  0  0  0  0
    1.4210    0.2147   -4.4675 C   0  0  0  0  0  0  0  0  0  0  0  0
    0.3601    0.3743   -5.0468 O   0  0  0  0  0  0  0  0  0  0  0  0
    2.4716    0.4036   -5.0566 O   0  0  0  0  0  1  0  0  0  0  0  0
    1.0042    1.8801    0.0026 H   0  0  0  0  0  0  0  0  0  0  0  0
   -0.5455    1.8639   -0.8728 H   0  0  0  0  0  0  0  0  0  0  0  0
   -0.5286    1.8543    0.9071 H   0  0  0  0  0  0  0  0  0  0  0  0
    1.2235    1.3196    2.0589 H   0  0  0  0  0  0  0  0  0  0  0  0
    1.2350    2.0261    4.4165 H   0  0  0  0  0  0  0  0  0  0  0  0
   -1.1379   -1.3634    5.4528 H   0  0  0  0  0  0  0  0  0  0  0  0
   -1.1657   -2.0709    3.0955 H   0  0  0  0  0  0  0  0  0  0  0  0
   -0.0079   -0.0678    7.1636 H   0  0  0  0  0  0  0  0  0  0  0  0
    0.9827    1.3464    6.7312 H   0  0  0  0  0  0  0  0  0  0  0  0
   -0.5106   -1.1377   -3.1282 H   0  0  0  0  0  0  0  0  0  0  0  0
   -0.5319    0.5678   -2.6194 H   0  0  0  0  0  0  0  0  0  0  0  0
    1.9398    0.5402   -2.4232 H   0  0  0  0  0  0  0  0  0  0  0  0
    1.9611   -1.1654   -2.9320 H   0  0  0  0  0  0  0  0  0  0  0  0
  1  2  1  0  0  0  0
  1 22  1  0  0  0  0
  1 23  1  0  0  0  0
  1 24  1  0  0  0  0
  2  6  1  0  0  0  0
  2  3  2  0  0  0  0
  3  4  1  0  0  0  0
  3 17  1  0  0  0  0
  4  5  2  0  0  0  0
  5  6  1  0  0  0  0
  6  7  1  0  0  0  0
  7 12  2  0  0  0  0
  7  8  1  0  0  0  0
  8  9  2  0  0  0  0
  8 25  1  0  0  0  0
  9 10  1  0  0  0  0
  9 26  1  0  0  0  0
 10 11  2  0  0  0  0
 10 13  1  0  0  0  0
 11 12  1  0  0  0  0
 11 27  1  0  0  0  0
 12 28  1  0  0  0  0
 13 14  1  0  0  0  0
 13 29  1  0  0  0  0
 13 30  1  0  0  0  0
 14 15  2  0  0  0  0
 14 16  1  0  0  0  0
 17 18  1  0  0  0  0
 17 31  1  0  0  0  0
 17 32  1  0  0  0  0
 18 19  1  0  0  0  0
 18 33  1  0  0  0  0
 18 34  1  0  0  0  0
 19 20  2  0  0  0  0
 19 21  1  0  0  0  0
M  END
$$$$
ZINC12379547
 OpenBabel01252620473D

 41 42  0  0  1  0  0  0  0  0999 V2000
   -0.1402   -4.3727   -4.6462 C   0  0  0  0  0  0  0  0  0  0  0  0
   -0.4474   -3.4336   -3.5083 C   0  0  0  0  0  0  0  0  0  0  0  0
   -1.4271   -2.7205   -3.5583 O   0  5  0  0  0  0  0  0  0  0  0  0
    0.3665   -3.3863   -2.4351 N   0  0  0  0  0  0  0  0  0  0  0  0
    0.0289   -2.3544   -1.1847 S   0  0  0  0  0  0  0  0  0  0  0  0
    1.0411   -2.5553   -0.2078 O   0  0  0  0  0  0  0  0  0  0  0  0
   -0.2279   -1.0831   -1.7654 O   0  0  0  0  0  0  0  0  0  0  0  0
   -1.4844   -2.8919   -0.4598 C   0  0  0  0  0  0  0  0  0  0  0  0
   -2.6873   -2.3897   -0.9216 C   0  0  0  0  0  0  0  0  0  0  0  0
   -3.8755   -2.8126   -0.3587 C   0  0  0  0  0  0  0  0  0  0  0  0
   -3.8608   -3.7355    0.6789 C   0  0  0  0  0  0  0  0  0  0  0  0
   -2.6509   -4.2340    1.1438 C   0  0  0  0  0  0  0  0  0  0  0  0
   -1.4664   -3.8107    0.5735 C   0  0  0  0  0  0  0  0  0  0  0  0
   -5.0626   -4.1627    1.2542 N   0  0  0  0  0  0  0  0  0  0  0  0
   -5.1108   -4.4675    2.5662 C   0  0  0  0  0  0  0  0  0  0  0  0
   -4.1395   -4.2808    3.2682 O   0  0  0  0  0  0  0  0  0  0  0  0
   -6.3715   -5.0402    3.1610 C   0  0  1  0  0  0  0  0  0  0  0  0
   -7.1821   -4.3123    3.0089 H   0  0  0  0  0  0  0  0  0  0  0  0
   -6.7098   -6.3641    2.4723 C   0  0  0  0  0  0  0  0  0  0  0  0
   -7.7964   -7.0752    3.2264 C   0  0  0  0  0  0  0  0  0  0  0  0
   -8.1402   -6.7939    4.4440 C   0  0  0  0  0  0  0  0  0  0  0  0
   -7.5027   -5.7148    5.2693 C   0  0  0  0  0  0  0  0  0  0  0  0
   -6.1612   -5.3061    4.6570 C   0  0  2  0  0  0  0  0  0  0  0  0
   -5.4126   -6.0977    4.8086 H   0  0  0  0  0  0  0  0  0  0  0  0
   -5.6584   -4.0541    5.3282 C   0  0  0  0  0  0  0  0  0  0  0  0
   -5.4845   -3.0493    4.6801 O   0  0  0  0  0  0  0  0  0  0  0  0
   -5.4038   -4.0551    6.6462 O   0  0  0  0  0  1  0  0  0  0  0  0
   -8.6493   -8.3499    2.4132 Cl  0  0  0  0  0  0  0  0  0  0  0  0
    0.7799   -4.9322   -4.4216 H   0  0  0  0  0  0  0  0  0  0  0  0
   -0.0010   -3.7944   -5.5715 H   0  0  0  0  0  0  0  0  0  0  0  0
   -0.9752   -5.0769   -4.7760 H   0  0  0  0  0  0  0  0  0  0  0  0
   -2.6977   -1.6688   -1.7257 H   0  0  0  0  0  0  0  0  0  0  0  0
   -4.8148   -2.4231   -0.7225 H   0  0  0  0  0  0  0  0  0  0  0  0
   -2.6362   -4.9521    1.9503 H   0  0  0  0  0  0  0  0  0  0  0  0
   -0.5251   -4.1979    0.9346 H   0  0  0  0  0  0  0  0  0  0  0  0
   -5.9681   -4.2498    0.6357 H   0  0  0  0  0  0  0  0  0  0  0  0
   -7.0526   -6.1664    1.4460 H   0  0  0  0  0  0  0  0  0  0  0  0
   -5.8139   -7.0017    2.4432 H   0  0  0  0  0  0  0  0  0  0  0  0
   -8.9454   -7.3616    4.9333 H   0  0  0  0  0  0  0  0  0  0  0  0
   -8.1661   -4.8380    5.3020 H   0  0  0  0  0  0  0  0  0  0  0  0
   -7.3346   -6.0857    6.2911 H   0  0  0  0  0  0  0  0  0  0  0  0
  1  2  1  0  0  0  0
  1 29  1  0  0  0  0
  1 30  1  0  0  0  0
  1 31  1  0  0  0  0
  2  3  1  0  0  0  0
  2  4  2  0  0  0  0
  4  5  1  0  0  0  0
  5  6  2  0  0  0  0
  5  7  2  0  0  0  0
  5  8  1  0  0  0  0
  8 13  2  0  0  0  0
  8  9  1  0  0  0  0
  9 10  2  0  0  0  0
  9 32  1  0  0  0  0
 10 11  1  0  0  0  0
 10 33  1  0  0  0  0
 11 12  2  0  0  0  0
 11 14  1  0  0  0  0
 12 13  1  0  0  0  0
 12 34  1  0  0  0  0
 13 35  1  0  0  0  0
 14 15  1  0  0  0  0
 14 36  1  0  0  0  0
 15 16  2  0  0  0  0
 15 17  1  0  0  0  0
 17 18  1  6  0  0  0
 17 23  1  0  0  0  0
 17 19  1  0  0  0  0
 19 20  1  0  0  0  0
 19 37  1  0  0  0  0
 19 38  1  0  0  0  0
 20 21  2  0  0  0  0
 20 28  1  0  0  0  0
 21 22  1  0  0  0  0
 21 39  1  0  0  0  0
 22 23  1  0  0  0  0
 22 40  1  0  0  0  0
 22 41  1  0  0  0  0
 23 24  1  1  0  0  0
 23 25  1  0  0  0  0
 25 26  2  0  0  0  0
 25 27  1  0  0  0  0
M  CHG  1   3  -1
M  END
$$$$
ZINC04802715
 OpenBabel01252620473D

 47 49  0  0  1  0  0  0  0  0999 V2000
   -0.0184    1.5028    0.0103 C   0  0  0  0  0  0  0  0  0  0  0  0
    0.0021   -0.0041    0.0020 C   0  0  0  0  0  0  0  0  0  0  0  0
    1.0565   -0.5939   -0.0112 O   0  0  0  0  0  0  0  0  0  0  0  0
   -1.1511   -0.6910    0.0093 O   0  0  0  0  0  0  0  0  0  0  0  0
   -1.0570   -2.1168    0.0008 C   0  0  0  0  0  0  0  0  0  0  0  0
   -2.4627   -2.7208    0.0110 C   0  0  1  0  0  0  0  0  0  0  0  0
   -3.0531   -2.3173   -0.8116 H   0  0  0  0  0  0  0  0  0  0  0  0
   -2.3853   -4.2651   -0.0896 C   0  0  1  0  0  0  0  0  0  0  0  0
   -1.5386   -4.6536    0.4764 H   0  0  0  0  0  0  0  0  0  0  0  0
   -3.7321   -4.6712    0.5685 C   0  0  1  0  0  0  0  0  0  0  0  0
   -3.6597   -5.6597    1.0222 H   0  0  0  0  0  0  0  0  0  0  0  0
   -3.9104   -3.5827    1.6486 C   0  0  1  0  0  0  0  0  0  0  0  0
   -3.5782   -3.9625    2.6148 H   0  0  0  0  0  0  0  0  0  0  0  0
   -3.1098   -2.4565    1.2659 O   0  0  0  0  0  0  0  0  0  0  0  0
   -5.3188   -3.1872    1.7278 N   0  0  0  0  0  0  0  0  0  0  0  0
   -5.8992   -2.1340    1.0831 C   0  0  0  0  0  0  0  0  0  0  0  0
   -7.1646   -2.0747    1.3796 N   0  0  0  0  0  0  0  0  0  0  0  0
   -7.4763   -3.0826    2.2308 C   0  0  0  0  0  0  0  0  0  0  0  0
   -6.2974   -3.8112    2.4593 C   0  0  0  0  0  0  0  0  0  0  0  0
   -6.3348   -4.8680    3.2650 N   0  0  0  0  0  0  0  0  0  0  0  0
   -7.4671   -5.2340    3.8439 C   0  0  0  0  0  0  0  0  0  0  0  0
   -8.6041   -4.5773    3.6541 N   0  0  0  0  0  0  0  0  0  0  0  0
   -8.6552   -3.5046    2.8708 C   0  0  0  0  0  0  0  0  0  0  0  0
  -10.1715   -2.6416    2.6242 S   0  0  0  0  0  1  0  0  0  0  0  0
   -7.4652   -6.3411    4.6764 N   0  0  0  0  0  0  0  0  0  0  0  0
   -4.7968   -4.6279   -0.3836 O   0  0  0  0  0  0  0  0  0  0  0  0
   -5.8149   -5.4830   -0.1987 C   0  0  0  0  0  0  0  0  0  0  0  0
   -5.8024   -6.2431    0.7404 O   0  0  0  0  0  0  0  0  0  0  0  0
   -6.9733   -5.4949   -1.1625 C   0  0  0  0  0  0  0  0  0  0  0  0
   -2.3282   -4.6902   -1.4527 O   0  0  0  0  0  0  0  0  0  0  0  0
   -1.1089   -4.8427   -1.9929 C   0  0  0  0  0  0  0  0  0  0  0  0
   -0.1228   -4.6225   -1.3304 O   0  0  0  0  0  0  0  0  0  0  0  0
   -0.9701   -5.2885   -3.4257 C   0  0  0  0  0  0  0  0  0  0  0  0
    1.0042    1.8801    0.0026 H   0  0  0  0  0  0  0  0  0  0  0  0
   -0.5455    1.8639   -0.8728 H   0  0  0  0  0  0  0  0  0  0  0  0
   -0.5286    1.8543    0.9071 H   0  0  0  0  0  0  0  0  0  0  0  0
   -0.5289   -2.4407   -0.8960 H   0  0  0  0  0  0  0  0  0  0  0  0
   -0.5119   -2.4503    0.8838 H   0  0  0  0  0  0  0  0  0  0  0  0
   -5.3842   -1.4503    0.4245 H   0  0  0  0  0  0  0  0  0  0  0  0
   -6.6432   -6.8336    4.8266 H   0  0  0  0  0  0  0  0  0  0  0  0
   -8.2860   -6.6239    5.1092 H   0  0  0  0  0  0  0  0  0  0  0  0
   -6.8088   -4.7466   -1.9378 H   0  0  0  0  0  0  0  0  0  0  0  0
   -7.0548   -6.4807   -1.6205 H   0  0  0  0  0  0  0  0  0  0  0  0
   -7.8944   -5.2662   -0.6264 H   0  0  0  0  0  0  0  0  0  0  0  0
   -0.9497   -4.4152   -4.0777 H   0  0  0  0  0  0  0  0  0  0  0  0
   -0.0439   -5.8512   -3.5430 H   0  0  0  0  0  0  0  0  0  0  0  0
   -1.8161   -5.9217   -3.6929 H   0  0  0  0  0  0  0  0  0  0  0  0
  1  2  1  0  0  0  0
  1 34  1  0  0  0  0
  1 35  1  0  0  0  0
  1 36  1  0  0  0  0
  2  3  2  0  0  0  0
  2  4  1  0  0  0  0
  4  5  1  0  0  0  0
  5  6  1  0  0  0  0
  5 37  1  0  0  0  0
  5 38  1  0  0  0  0
  6  7  1  6  0  0  0
  6 14  1  0  0  0  0
  6  8  1  0  0  0  0
  8  9  1  1  0  0  0
  8 10  1  0  0  0  0
  8 30  1  0  0  0  0
 10 11  1  1  0  0  0
 10 12  1  0  0  0  0
 10 26  1  0  0  0  0
 12 13  1  1  0  0  0
 12 14  1  0  0  0  0
 12 15  1  0  0  0  0
 15 19  1  0  0  0  0
 15 16  1  0  0  0  0
 16 17  2  0  0  0  0
 16 39  1  0  0  0  0
 17 18  1  0  0  0  0
 18 23  2  0  0  0  0
 18 19  1  0  0  0  0
 19 20  2  0  0  0  0
 20 21  1  0  0  0  0
 21 22  2  0  0  0  0
 21 25  1  0  0  0  0
 22 23  1  0  0  0  0
 23 24  1  0  0  0  0
 25 40  1  0  0  0  0
 25 41  1  0  0  0  0
 26 27  1  0  0  0  0
 27 28  2  0  0  0  0
 27 29  1  0  0  0  0
 29 42  1  0  0  0  0
 29 43  1  0  0  0  0
 29 44  1  0  0  0  0
 30 31  1  0  0  0  0
 31 32  2  0  0  0  0
 31 33  1  0  0  0  0
 33 45  1  0  0  0  0
 33 46  1  0  0  0  0
 33 47  1  0  0  0  0
M  END
$$$$
ZINC39148498
 OpenBabel01252620473D

 43 46  0  0  1  0  0  0  0  0999 V2000
   -0.0168    1.3894    0.0097 C   0  0  0  0  0  0  0  0  0  0  0  0
    1.1405    2.1055    0.0025 C   0  0  0  0  0  0  0  0  0  0  0  0
    2.3751    1.4340   -0.0129 C   0  0  0  0  0  0  0  0  0  0  0  0
    2.3944    0.0163   -0.0207 C   0  0  0  0  0  0  0  0  0  0  0  0
    1.1784   -0.6885   -0.0129 C   0  0  0  0  0  0  0  0  0  0  0  0
    0.0021   -0.0041    0.0020 C   0  0  0  0  0  0  0  0  0  0  0  0
   -1.2991   -0.7643    0.0109 C   0  0  2  0  0  0  0  0  0  0  0  0
   -1.1451   -1.7837    0.3646 H   0  0  0  0  0  0  0  0  0  0  0  0
   -1.9379   -0.7660   -1.3928 C   0  0  0  0  0  0  0  0  0  0  0  0
   -3.2570   -0.0553   -1.1896 C   0  0  0  0  0  0  0  0  0  0  0  0
   -3.3780    0.2858    0.0275 N   0  0  0  0  0  0  0  0  0  0  0  0
   -2.2995   -0.0721    0.8403 N   0  0  0  0  0  0  0  0  0  0  0  0
   -2.1903    0.1745    2.1608 C   0  0  0  0  0  0  0  0  0  0  0  0
   -1.2017   -0.1844    2.7651 O   0  0  0  0  0  0  0  0  0  0  0  0
   -3.2965    0.8961    2.8866 C   0  0  0  0  0  0  0  0  0  0  0  0
   -2.9245    1.0463    4.3631 C   0  0  0  0  0  0  0  0  0  0  0  0
   -4.0307    1.7678    5.0888 C   0  0  0  0  0  0  0  0  0  0  0  0
   -5.0244    2.1286    4.4815 O   0  0  0  0  0  0  0  0  0  0  0  0
   -3.9319    1.9909    6.2834 O   0  0  0  0  0  1  0  0  0  0  0  0
   -4.2746    0.2091   -2.2693 C   0  0  2  0  0  0  0  0  0  0  0  0
   -3.8327    0.8092   -3.0647 H   0  0  0  0  0  0  0  0  0  0  0  0
   -5.4814    0.9142   -1.6902 C   0  0  0  0  0  0  0  0  0  0  0  0
   -6.5162    0.1030   -1.9032 C   0  0  0  0  0  0  0  0  0  0  0  0
   -6.0567   -1.1029   -2.5935 C   0  0  0  0  0  0  0  0  0  0  0  0
   -4.7825   -1.0580   -2.8106 N   0  0  0  0  0  0  0  0  0  0  0  0
    3.5665   -0.6280   -0.0349 N   0  0  0  0  0  0  0  0  0  0  0  0
    4.6863    0.0581   -0.0415 C   0  0  0  0  0  0  0  0  0  0  0  0
    4.6673    1.4548   -0.0338 C   0  0  0  0  0  0  0  0  0  0  0  0
    3.5293    2.1101   -0.0199 N   0  0  0  0  0  0  0  0  0  0  0  0
   -0.9637    1.9086    0.0261 H   0  0  0  0  0  0  0  0  0  0  0  0
    1.1103    3.1851    0.0082 H   0  0  0  0  0  0  0  0  0  0  0  0
    1.1774   -1.7684   -0.0191 H   0  0  0  0  0  0  0  0  0  0  0  0
   -1.3130   -0.2187   -2.0984 H   0  0  0  0  0  0  0  0  0  0  0  0
   -2.1023   -1.7869   -1.7373 H   0  0  0  0  0  0  0  0  0  0  0  0
   -3.4375    1.8827    2.4452 H   0  0  0  0  0  0  0  0  0  0  0  0
   -4.2206    0.3243    2.8010 H   0  0  0  0  0  0  0  0  0  0  0  0
   -2.7836    0.0596    4.8044 H   0  0  0  0  0  0  0  0  0  0  0  0
   -2.0005    1.6180    4.4486 H   0  0  0  0  0  0  0  0  0  0  0  0
   -5.5001    1.8782   -1.2036 H   0  0  0  0  0  0  0  0  0  0  0  0
   -7.5365    0.3042   -1.6119 H   0  0  0  0  0  0  0  0  0  0  0  0
   -6.6972   -1.9224   -2.8841 H   0  0  0  0  0  0  0  0  0  0  0  0
    5.6321   -0.4632   -0.0526 H   0  0  0  0  0  0  0  0  0  0  0  0
    5.5986    2.0017   -0.0390 H   0  0  0  0  0  0  0  0  0  0  0  0
  1  6  2  0  0  0  0
  1  2  1  0  0  0  0
  1 30  1  0  0  0  0
  2  3  2  0  0  0  0
  2 31  1  0  0  0  0
  3 29  1  0  0  0  0
  3  4  1  0  0  0  0
  4  5  2  0  0  0  0
  4 26  1  0  0  0  0
  5  6  1  0  0  0  0
  5 32  1  0  0  0  0
  6  7  1  0  0  0  0
  7  8  1  1  0  0  0
  7 12  1  0  0  0  0
  7  9  1  0  0  0  0
  9 10  1  0  0  0  0
  9 33  1  0  0  0  0
  9 34  1  0  0  0  0
 10 11  2  0  0  0  0
 10 20  1  0  0  0  0
 11 12  1  0  0  0  0
 12 13  1  0  0  0  0
 13 14  2  0  0  0  0
 13 15  1  0  0  0  0
 15 16  1  0  0  0  0
 15 35  1  0  0  0  0
 15 36  1  0  0  0  0
 16 17  1  0  0  0  0
 16 37  1  0  0  0  0
 16 38  1  0  0  0  0
 17 18  2  0  0  0  0
 17 19  1  0  0  0  0
 20 21  1  6  0  0  0
 20 25  1  0  0  0  0
 20 22  1  0  0  0  0
 22 23  2  0  0  0  0
 22 39  1  0  0  0  0
 23 24  1  0  0  0  0
 23 40  1  0  0  0  0
 24 25  2  0  0  0  0
 24 41  1  0  0  0  0
 26 27  2  0  0  0  0
 27 28  1  0  0  0  0
 27 42  1  0  0  0  0
 28 29  2  0  0  0  0
 28 43  1  0  0  0  0
M  END
$$$$
ZINC45021426
 OpenBabel01252620473D

 40 40  0  0  1  0  0  0  0  0999 V2000
    0.8656   -0.4545    1.2326 C   0  0  0  0  0  0  0  0  0  0  0  0
   -0.0029   -0.0225    0.0494 C   0  0  1  0  0  0  0  0  0  0  0  0
   -1.3775   -0.6858    0.1569 C   0  0  0  0  0  0  0  0  0  0  0  0
   -2.0968   -0.1695    1.4046 C   0  0  0  0  0  0  0  0  0  0  0  0
   -3.3806   -0.7889    1.5050 O   0  0  0  0  0  0  0  0  0  0  0  0
   -4.1391   -0.3735    2.6426 C   0  0  0  0  0  0  0  0  0  0  0  0
   -0.1654    1.4756    0.0660 C   0  0  0  0  0  0  0  0  0  0  0  0
    0.2197    2.1411   -0.8802 O   0  0  0  0  0  0  0  0  0  0  0  0
   -0.6820    2.0222    1.0256 O   0  0  0  0  0  1  0  0  0  0  0  0
    0.6395   -0.4302   -1.2025 N   0  0  0  0  0  0  0  0  0  0  0  0
    0.0905   -0.0408   -2.4303 C   0  0  0  0  0  0  0  0  0  0  0  0
   -1.1058    0.6605   -2.4651 C   0  0  0  0  0  0  0  0  0  0  0  0
   -1.6470    1.0453   -3.6819 C   0  0  0  0  0  0  0  0  0  0  0  0
   -0.9930    0.7289   -4.8645 C   0  0  0  0  0  0  0  0  0  0  0  0
    0.2001    0.0296   -4.8318 C   0  0  0  0  0  0  0  0  0  0  0  0
    0.7476   -0.3520   -3.6182 C   0  0  0  0  0  0  0  0  0  0  0  0
    1.9242   -1.0351   -3.5867 O   0  0  0  0  0  0  0  0  0  0  0  0
    2.5428   -1.3200   -4.8429 C   0  0  0  0  0  0  0  0  0  0  0  0
   -1.6736    1.2111   -6.3870 Cl  0  0  0  0  0  0  0  0  0  0  0  0
   -2.8198    1.7330   -3.7169 O   0  0  0  0  0  0  0  0  0  0  0  0
   -3.4388    2.0243   -2.4623 C   0  0  0  0  0  0  0  0  0  0  0  0
    0.9098   -1.5428    1.2727 H   0  0  0  0  0  0  0  0  0  0  0  0
    1.8720   -0.0543    1.1097 H   0  0  0  0  0  0  0  0  0  0  0  0
    0.4339   -0.0740    2.1583 H   0  0  0  0  0  0  0  0  0  0  0  0
   -1.9670   -0.4455   -0.7279 H   0  0  0  0  0  0  0  0  0  0  0  0
   -1.2548   -1.7664    0.2293 H   0  0  0  0  0  0  0  0  0  0  0  0
   -1.5073   -0.4097    2.2894 H   0  0  0  0  0  0  0  0  0  0  0  0
   -2.2195    0.9112    1.3322 H   0  0  0  0  0  0  0  0  0  0  0  0
   -4.3041    0.7029    2.5959 H   0  0  0  0  0  0  0  0  0  0  0  0
   -5.0997   -0.8886    2.6466 H   0  0  0  0  0  0  0  0  0  0  0  0
   -3.5919   -0.6180    3.5531 H   0  0  0  0  0  0  0  0  0  0  0  0
    1.4451   -0.9700   -1.1809 H   0  0  0  0  0  0  0  0  0  0  0  0
   -1.6152    0.9062   -1.5450 H   0  0  0  0  0  0  0  0  0  0  0  0
    0.7070   -0.2158   -5.7533 H   0  0  0  0  0  0  0  0  0  0  0  0
    1.8694   -1.9244   -5.4507 H   0  0  0  0  0  0  0  0  0  0  0  0
    2.7602   -0.3860   -5.3610 H   0  0  0  0  0  0  0  0  0  0  0  0
    3.4706   -1.8670   -4.6753 H   0  0  0  0  0  0  0  0  0  0  0  0
   -2.7636    2.6276   -1.8554 H   0  0  0  0  0  0  0  0  0  0  0  0
   -4.3640    2.5748   -2.6327 H   0  0  0  0  0  0  0  0  0  0  0  0
   -3.6609    1.0927   -1.9417 H   0  0  0  0  0  0  0  0  0  0  0  0
  1  2  1  0  0  0  0
  1 22  1  0  0  0  0
  1 23  1  0  0  0  0
  1 24  1  0  0  0  0
  2  3  1  0  0  0  0
  2  7  1  1  0  0  0
  2 10  1  0  0  0  0
  3  4  1  0  0  0  0
  3 25  1  0  0  0  0
  3 26  1  0  0  0  0
  4  5  1  0  0  0  0
  4 27  1  0  0  0  0
  4 28  1  0  0  0  0
  5  6  1  0  0  0  0
  6 29  1  0  0  0  0
  6 30  1  0  0  0  0
  6 31  1  0  0  0  0
  7  8  2  0  0  0  0
  7  9  1  0  0  0  0
 10 11  1  0  0  0  0
 10 32  1  0  0  0  0
 11 16  2  0  0  0  0
 11 12  1  0  0  0  0
 12 13  2  0  0  0  0
 12 33  1  0  0  0  0
 13 14  1  0  0  0  0
 13 20  1  0  0  0  0
 14 15  2  0  0  0  0
 14 19  1  0  0  0  0
 15 16  1  0  0  0  0
 15 34  1  0  0  0  0
 16 17  1  0  0  0  0
 17 18  1  0  0  0  0
 18 35  1  0  0  0  0
 18 36  1  0  0  0  0
 18 37  1  0  0  0  0
 20 21  1  0  0  0  0
 21 38  1  0  0  0  0
 21 39  1  0  0  0  0
 21 40  1  0  0  0  0
M  END
$$$$
ZINC49104424
 OpenBabel01252620473D

 34 34  0  0  0  0  0  0  0  0999 V2000
   -0.4747    1.3823   -0.2012 C   0  0  0  0  0  0  0  0  0  0  0  0
   -0.4471   -0.0464   -0.2172 O   0  0  0  0  0  0  0  0  0  0  0  0
    0.3197   -0.6010   -1.2879 C   0  0  0  0  0  0  0  0  0  0  0  0
    0.2792   -2.1283   -1.2064 C   0  0  0  0  0  0  0  0  0  0  0  0
    1.1003   -2.7221   -2.3528 C   0  0  0  0  0  0  0  0  0  0  0  0
    1.0615   -4.1845   -2.2748 N   0  0  0  0  0  0  0  0  0  0  0  0
    1.7252   -4.9327   -3.1971 C   0  0  0  0  0  0  0  0  0  0  0  0
    2.4175   -4.3293   -4.1814 O   0  5  0  0  0  0  0  0  0  0  0  0
    1.6882   -6.3259   -3.1228 C   0  0  0  0  0  0  0  0  0  0  0  0
    0.9517   -6.9678   -2.0758 C   0  0  0  0  0  0  0  0  0  0  0  0
    0.3675   -7.4770   -1.2452 N   0  0  0  0  0  0  0  0  0  0  0  0
    2.4011   -7.1296   -4.1135 C   0  0  0  0  0  0  0  0  0  0  0  0
    2.9449   -6.5885   -5.0595 O   0  0  0  0  0  0  0  0  0  0  0  0
    2.4621   -8.5996   -3.9675 C   0  0  0  0  0  0  0  0  0  0  0  0
    1.6674   -9.4178   -4.7728 C   0  0  0  0  0  0  0  0  0  0  0  0
    1.7286  -10.7879   -4.6321 C   0  0  0  0  0  0  0  0  0  0  0  0
    2.5759  -11.3541   -3.6936 C   0  0  0  0  0  0  0  0  0  0  0  0
    3.3667  -10.5498   -2.8918 C   0  0  0  0  0  0  0  0  0  0  0  0
    3.3194   -9.1762   -3.0271 C   0  0  0  0  0  0  0  0  0  0  0  0
    4.3169   -8.1683   -2.0257 Cl  0  0  0  0  0  0  0  0  0  0  0  0
    2.6520  -13.2344   -3.5072 Br  0  0  0  0  0  0  0  0  0  0  0  0
    0.5412    1.7642   -0.1007 H   0  0  0  0  0  0  0  0  0  0  0  0
   -0.9098    1.7477   -1.1314 H   0  0  0  0  0  0  0  0  0  0  0  0
   -1.0766    1.7247    0.6406 H   0  0  0  0  0  0  0  0  0  0  0  0
   -0.0989   -0.2767   -2.2406 H   0  0  0  0  0  0  0  0  0  0  0  0
    1.3521   -0.2602   -1.2099 H   0  0  0  0  0  0  0  0  0  0  0  0
    0.6978   -2.4525   -0.2537 H   0  0  0  0  0  0  0  0  0  0  0  0
   -0.7532   -2.4690   -1.2845 H   0  0  0  0  0  0  0  0  0  0  0  0
    0.6816   -2.3978   -3.3055 H   0  0  0  0  0  0  0  0  0  0  0  0
    2.1327   -2.3813   -2.2748 H   0  0  0  0  0  0  0  0  0  0  0  0
    0.5626   -4.6193   -1.5656 H   0  0  0  0  0  0  0  0  0  0  0  0
    1.0057   -8.9782   -5.5045 H   0  0  0  0  0  0  0  0  0  0  0  0
    1.1142  -11.4213   -5.2547 H   0  0  0  0  0  0  0  0  0  0  0  0
    4.0252  -10.9972   -2.1620 H   0  0  0  0  0  0  0  0  0  0  0  0
  1  2  1  0  0  0  0
  1 22  1  0  0  0  0
  1 23  1  0  0  0  0
  1 24  1  0  0  0  0
  2  3  1  0  0  0  0
  3  4  1  0  0  0  0
  3 25  1  0  0  0  0
  3 26  1  0  0  0  0
  4  5  1  0  0  0  0
  4 27  1  0  0  0  0
  4 28  1  0  0  0  0
  5  6  1  0  0  0  0
  5 29  1  0  0  0  0
  5 30  1  0  0  0  0
  6  7  1  0  0  0  0
  6 31  1  0  0  0  0
  7  8  1  0  0  0  0
  7  9  2  0  0  0  0
  9 10  1  0  0  0  0
  9 12  1  0  0  0  0
 10 11  3  0  0  0  0
 12 13  2  0  0  0  0
 12 14  1  0  0  0  0
 14 19  2  0  0  0  0
 14 15  1  0  0  0  0
 15 16  2  0  0  0  0
 15 32  1  0  0  0  0
 16 17  1  0  0  0  0
 16 33  1  0  0  0  0
 17 18  2  0  0  0  0
 17 21  1  0  0  0  0
 18 19  1  0  0  0  0
 18 34  1  0  0  0  0
 19 20  1  0  0  0  0
M  CHG  1   8  -1
M  END
$$$$
ZINC62845224
 OpenBabel01252620473D

 40 41  0  0  0  0  0  0  0  0999 V2000
   -0.0187    1.5258    0.0104 C   0  0  0  0  0  0  0  0  0  0  0  0
    0.0021   -0.0041    0.0020 C   0  0  0  0  0  0  0  0  0  0  0  0
    0.7182   -0.4975   -1.2568 C   0  0  0  0  0  0  0  0  0  0  0  0
   -0.0212    0.0110   -2.4965 C   0  0  0  0  0  0  0  0  0  0  0  0
   -1.4678   -0.4922   -2.4655 C   0  0  0  0  0  0  0  0  0  0  0  0
   -1.4568   -1.9548   -2.3271 N   0  0  0  0  0  0  0  0  0  0  0  0
   -0.6992   -2.5540   -1.2200 C   0  0  0  0  0  0  0  0  0  0  0  0
    0.7388   -2.0277   -1.2649 C   0  0  0  0  0  0  0  0  0  0  0  0
   -2.2832   -2.9099   -3.3982 S   0  0  0  0  0  0  0  0  0  0  0  0
   -2.5541   -4.1327   -2.7268 O   0  0  0  0  0  0  0  0  0  0  0  0
   -3.3116   -2.1016   -3.9534 O   0  0  0  0  0  0  0  0  0  0  0  0
   -1.2438   -3.2698   -4.6362 N   0  0  0  0  0  0  0  0  0  0  0  0
   -1.0648   -2.4784   -5.8622 C   0  0  0  0  0  0  0  0  0  0  0  0
   -0.0185   -3.2087   -6.7303 C   0  0  0  0  0  0  0  0  0  0  0  0
   -0.0835   -4.6657   -6.2007 C   0  0  0  0  0  0  0  0  0  0  0  0
   -0.3402   -4.4335   -4.6885 C   0  0  0  0  0  0  0  0  0  0  0  0
    2.1322    0.0237   -1.2669 C   0  0  0  0  0  0  0  0  0  0  0  0
    2.5300    0.7247   -0.3521 O   0  0  0  0  0  0  0  0  0  0  0  0
    2.8783   -0.2556   -2.1898 O   0  0  0  0  0  1  0  0  0  0  0  0
    1.0039    1.9031    0.0027 H   0  0  0  0  0  0  0  0  0  0  0  0
   -0.5459    1.8868   -0.8726 H   0  0  0  0  0  0  0  0  0  0  0  0
   -0.5289    1.8773    0.9072 H   0  0  0  0  0  0  0  0  0  0  0  0
    0.5293   -0.3651    0.8851 H   0  0  0  0  0  0  0  0  0  0  0  0
   -1.0205   -0.3814    0.0098 H   0  0  0  0  0  0  0  0  0  0  0  0
   -0.0152    1.1010   -2.5021 H   0  0  0  0  0  0  0  0  0  0  0  0
    0.4741   -0.3606   -3.3935 H   0  0  0  0  0  0  0  0  0  0  0  0
   -1.9908   -0.0488   -1.6181 H   0  0  0  0  0  0  0  0  0  0  0  0
   -1.9704   -0.2166   -3.3926 H   0  0  0  0  0  0  0  0  0  0  0  0
   -1.1595   -2.2789   -0.2711 H   0  0  0  0  0  0  0  0  0  0  0  0
   -0.6946   -3.6389   -1.3253 H   0  0  0  0  0  0  0  0  0  0  0  0
    1.2270   -2.3802   -2.1736 H   0  0  0  0  0  0  0  0  0  0  0  0
    1.2858   -2.3889   -0.3940 H   0  0  0  0  0  0  0  0  0  0  0  0
   -2.0101   -2.4097   -6.4004 H   0  0  0  0  0  0  0  0  0  0  0  0
   -0.7059   -1.4805   -5.6101 H   0  0  0  0  0  0  0  0  0  0  0  0
   -0.2957   -3.1686   -7.7837 H   0  0  0  0  0  0  0  0  0  0  0  0
    0.9741   -2.7859   -6.5752 H   0  0  0  0  0  0  0  0  0  0  0  0
   -0.9068   -5.2122   -6.6607 H   0  0  0  0  0  0  0  0  0  0  0  0
    0.8633   -5.1818   -6.3598 H   0  0  0  0  0  0  0  0  0  0  0  0
    0.5940   -4.2119   -4.1724 H   0  0  0  0  0  0  0  0  0  0  0  0
   -0.8204   -5.3069   -4.2472 H   0  0  0  0  0  0  0  0  0  0  0  0
  1  2  1  0  0  0  0
  1 20  1  0  0  0  0
  1 21  1  0  0  0  0
  1 22  1  0  0  0  0
  2  3  1  0  0  0  0
  2 23  1  0  0  0  0
  2 24  1  0  0  0  0
  3  8  1  0  0  0  0
  3  4  1  0  0  0  0
  3 17  1  0  0  0  0
  4  5  1  0  0  0  0
  4 25  1  0  0  0  0
  4 26  1  0  0  0  0
  5  6  1  0  0  0  0
  5 27  1  0  0  0  0
  5 28  1  0  0  0  0
  6  7  1  0  0  0  0
  6  9  1  0  0  0  0
  7  8  1  0  0  0  0
  7 29  1  0  0  0  0
  7 30  1  0  0  0  0
  8 31  1  0  0  0  0
  8 32  1  0  0  0  0
  9 10  2  0  0  0  0
  9 11  2  0  0  0  0
  9 12  1  0  0  0  0
 12 16  1  0  0  0  0
 12 13  1  0  0  0  0
 13 14  1  0  0  0  0
 13 33  1  0  0  0  0
 13 34  1  0  0  0  0
 14 15  1  0  0  0  0
 14 35  1  0  0  0  0
 14 36  1  0  0  0  0
 15 16  1  0  0  0  0
 15 37  1  0  0  0  0
 15 38  1  0  0  0  0
 16 39  1  0  0  0  0
 16 40  1  0  0  0  0
 17 18  2  0  0  0  0
 17 19  1  0  0  0  0
M  END
$$$$
ZINC66044391
 OpenBabel01252620473D

 44 46  0  0  1  0  0  0  0  0999 V2000
    1.7039   -0.5896    2.4890 C   0  0  0  0  0  0  0  0  0  0  0  0
    1.2605   -1.8678    1.9269 N   0  0  0  0  0  0  0  0  0  0  0  0
    1.2020   -2.1807    0.6155 C   0  0  0  0  0  0  0  0  0  0  0  0
    0.7424   -3.4494    0.5143 C   0  0  0  0  0  0  0  0  0  0  0  0
    0.5121   -3.9281    1.8082 C   0  0  0  0  0  0  0  0  0  0  0  0
    0.8280   -2.9830    2.6560 N   0  0  0  0  0  0  0  0  0  0  0  0
    0.5175   -4.2115   -0.7662 C   0  0  1  0  0  0  0  0  0  0  0  0
    0.1850   -5.7006   -0.6529 C   0  0  0  0  0  0  0  0  0  0  0  0
   -0.9023   -4.7025   -1.0560 C   0  0  1  0  0  0  0  0  0  0  0  0
   -1.9688   -4.3871   -0.0391 C   0  0  0  0  0  0  0  0  0  0  0  0
   -1.6861   -3.7656    0.9634 O   0  0  0  0  0  0  0  0  0  0  0  0
   -3.2368   -4.7955   -0.2436 N   0  0  0  0  0  0  0  0  0  0  0  0
   -4.2077   -4.5879    0.7448 C   0  0  0  0  0  0  0  0  0  0  0  0
   -4.1692   -3.4401    1.5252 C   0  0  0  0  0  0  0  0  0  0  0  0
   -5.1256   -3.2330    2.5014 C   0  0  0  0  0  0  0  0  0  0  0  0
   -6.1252   -4.1699    2.7040 C   0  0  0  0  0  0  0  0  0  0  0  0
   -6.1675   -5.3227    1.9227 C   0  0  0  0  0  0  0  0  0  0  0  0
   -5.2110   -5.5269    0.9398 C   0  0  0  0  0  0  0  0  0  0  0  0
   -7.1770   -6.2705    2.1260 N   0  0  0  0  0  2  0  0  0  0  0  0
   -7.2261   -7.6402    1.1966 S   0  0  0  0  0  0  0  0  0  0  0  0
   -7.4582   -7.1733   -0.1252 O   0  0  0  0  0  0  0  0  0  0  0  0
   -6.0319   -8.3398    1.5185 O   0  0  0  0  0  0  0  0  0  0  0  0
   -8.6700   -8.5595    1.7971 C   0  0  0  0  0  0  0  0  0  0  0  0
   -7.0654   -3.9649    3.6661 O   0  0  0  0  0  0  0  0  0  0  0  0
   -6.9605   -2.7616    4.4297 C   0  0  0  0  0  0  0  0  0  0  0  0
    2.7791   -0.6235    2.6649 H   0  0  0  0  0  0  0  0  0  0  0  0
    1.4754    0.2140    1.7890 H   0  0  0  0  0  0  0  0  0  0  0  0
    1.1871   -0.4084    3.4315 H   0  0  0  0  0  0  0  0  0  0  0  0
    1.4731   -1.5342   -0.2061 H   0  0  0  0  0  0  0  0  0  0  0  0
    0.1421   -4.9101    2.0635 H   0  0  0  0  0  0  0  0  0  0  0  0
    1.1233   -3.8938   -1.6148 H   0  0  0  0  0  0  0  0  0  0  0  0
    0.5722   -6.3630   -1.4271 H   0  0  0  0  0  0  0  0  0  0  0  0
    0.1290   -6.1291    0.3478 H   0  0  0  0  0  0  0  0  0  0  0  0
   -1.2304   -4.7083   -2.0954 H   0  0  0  0  0  0  0  0  0  0  0  0
   -3.4772   -5.2332   -1.0752 H   0  0  0  0  0  0  0  0  0  0  0  0
   -3.3905   -2.7082    1.3694 H   0  0  0  0  0  0  0  0  0  0  0  0
   -5.0931   -2.3395    3.1073 H   0  0  0  0  0  0  0  0  0  0  0  0
   -5.2439   -6.4176    0.3300 H   0  0  0  0  0  0  0  0  0  0  0  0
   -9.5663   -7.9527    1.6686 H   0  0  0  0  0  0  0  0  0  0  0  0
   -8.7732   -9.4847    1.2302 H   0  0  0  0  0  0  0  0  0  0  0  0
   -8.5381   -8.7936    2.8535 H   0  0  0  0  0  0  0  0  0  0  0  0
   -6.0020   -2.7427    4.9482 H   0  0  0  0  0  0  0  0  0  0  0  0
   -7.0304   -1.9014    3.7638 H   0  0  0  0  0  0  0  0  0  0  0  0
   -7.7692   -2.7227    5.1595 H   0  0  0  0  0  0  0  0  0  0  0  0
  1  2  1  0  0  0  0
  1 26  1  0  0  0  0
  1 27  1  0  0  0  0
  1 28  1  0  0  0  0
  2  6  1  0  0  0  0
  2  3  1  0  0  0  0
  3  4  2  0  0  0  0
  3 29  1  0  0  0  0
  4  5  1  0  0  0  0
  4  7  1  0  0  0  0
  5  6  2  0  0  0  0
  5 30  1  0  0  0  0
  7  9  1  0  0  0  0
  7  8  1  0  0  0  0
  7 31  1  6  0  0  0
  8  9  1  0  0  0  0
  8 32  1  0  0  0  0
  8 33  1  0  0  0  0
  9 10  1  0  0  0  0
  9 34  1  6  0  0  0
 10 11  2  0  0  0  0
 10 12  1  0  0  0  0
 12 13  1  0  0  0  0
 12 35  1  0  0  0  0
 13 18  2  0  0  0  0
 13 14  1  0  0  0  0
 14 15  2  0  0  0  0
 14 36  1  0  0  0  0
 15 16  1  0  0  0  0
 15 37  1  0  0  0  0
 16 17  2  0  0  0  0
 16 24  1  0  0  0  0
 17 18  1  0  0  0  0
 17 19  1  0  0  0  0
 18 38  1  0  0  0  0
 19 20  1  0  0  0  0
 20 21  2  0  0  0  0
 20 22  2  0  0  0  0
 20 23  1  0  0  0  0
 23 39  1  0  0  0  0
 23 40  1  0  0  0  0
 23 41  1  0  0  0  0
 24 25  1  0  0  0  0
 25 42  1  0  0  0  0
 25 43  1  0  0  0  0
 25 44  1  0  0  0  0
M  END
$$$$
ZINC15957188
 OpenBabel01252620473D

 60 64  0  0  1  0  0  0  0  0999 V2000
   -0.0184    1.5028    0.0103 C   0  0  0  0  0  0  0  0  0  0  0  0
    0.0021   -0.0041    0.0020 C   0  0  0  0  0  0  0  0  0  0  0  0
    0.0058   -0.6906   -1.1986 C   0  0  0  0  0  0  0  0  0  0  0  0
    0.0245   -2.0696   -1.2120 C   0  0  0  0  0  0  0  0  0  0  0  0
    0.0393   -2.7821   -0.0151 C   0  0  0  0  0  0  0  0  0  0  0  0
    0.0352   -2.0808    1.1871 C   0  0  0  0  0  0  0  0  0  0  0  0
    0.0229   -0.7038    1.1954 C   0  0  0  0  0  0  0  0  0  0  0  0
    0.0530   -3.1220    2.2695 C   0  0  1  0  0  0  0  0  0  0  0  0
    1.2769   -2.9691    3.1808 C   0  0  2  0  0  0  0  0  0  0  0  0
    2.1221   -3.5743    2.8531 H   0  0  0  0  0  0  0  0  0  0  0  0
    0.7634   -3.3639    4.5937 C   0  0  2  0  0  0  0  0  0  0  0  0
    1.3431   -4.1697    5.0441 H   0  0  0  0  0  0  0  0  0  0  0  0
   -0.7179   -3.7434    4.3856 C   0  0  2  0  0  0  0  0  0  0  0  0
   -0.8186   -4.8209    4.2553 H   0  0  0  0  0  0  0  0  0  0  0  0
   -1.1240   -3.0081    3.1507 N   0  0  0  0  0  0  0  0  0  0  0  0
   -1.5603   -3.2707    5.5721 C   0  0  1  0  0  0  0  0  0  0  0  0
   -1.4807   -2.1877    5.6656 H   0  0  0  0  0  0  0  0  0  0  0  0
   -3.0232   -3.6569    5.3450 C   0  0  0  0  0  0  0  0  0  0  0  0
   -1.0850   -3.8884    6.7698 O   0  0  0  0  0  0  0  0  0  0  0  0
    0.8583   -2.0724    5.3734 C   0  0  0  0  0  0  0  0  0  0  0  0
    0.5432   -1.9308    6.5354 O   0  0  0  0  0  0  0  0  0  0  0  0
    1.3447   -1.1099    4.5814 N   0  0  0  0  0  0  0  0  0  0  0  0
    1.6276   -1.5044    3.3185 C   0  0  0  0  0  0  0  0  0  0  0  0
    2.0842   -0.8078    2.4377 O   0  0  0  0  0  0  0  0  0  0  0  0
    1.5612    0.2630    5.0446 C   0  0  0  0  0  0  0  0  0  0  0  0
    2.9567    0.3921    5.5988 C   0  0  0  0  0  0  0  0  0  0  0  0
    3.1653    0.3479    6.9639 C   0  0  0  0  0  0  0  0  0  0  0  0
    4.4451    0.4667    7.4729 C   0  0  0  0  0  0  0  0  0  0  0  0
    5.5196    0.6296    6.6177 C   0  0  0  0  0  0  0  0  0  0  0  0
    5.3163    0.6740    5.2522 C   0  0  0  0  0  0  0  0  0  0  0  0
    4.0333    0.5496    4.7385 C   0  0  0  0  0  0  0  0  0  0  0  0
    3.8314    0.5874    3.3952 O   0  0  0  0  0  0  0  0  0  0  0  0
    4.9863    0.7520    2.5699 C   0  0  0  0  0  0  0  0  0  0  0  0
    0.0693   -4.4403    1.5447 C   0  0  0  0  0  0  0  0  0  0  0  0
    0.0887   -5.5435    2.0483 O   0  0  0  0  0  0  0  0  0  0  0  0
    0.0587   -4.1572    0.2279 N   0  0  0  0  0  0  0  0  0  0  0  0
    0.0284   -2.8080   -2.5257 C   0  0  0  0  0  0  0  0  0  0  0  0
    1.0042    1.8801    0.0026 H   0  0  0  0  0  0  0  0  0  0  0  0
   -0.5455    1.8639   -0.8728 H   0  0  0  0  0  0  0  0  0  0  0  0
   -0.5286    1.8543    0.9071 H   0  0  0  0  0  0  0  0  0  0  0  0
   -0.0064   -0.1442   -2.1301 H   0  0  0  0  0  0  0  0  0  0  0  0
    0.0247   -0.1697    2.1341 H   0  0  0  0  0  0  0  0  0  0  0  0
   -1.3362   -2.0415    3.3474 H   0  0  0  0  0  0  0  0  0  0  0  0
   -3.1028   -4.7400    5.2515 H   0  0  0  0  0  0  0  0  0  0  0  0
   -3.6233   -3.3202    6.1903 H   0  0  0  0  0  0  0  0  0  0  0  0
   -3.3857   -3.1858    4.4314 H   0  0  0  0  0  0  0  0  0  0  0  0
   -1.1265   -4.8544    6.7574 H   0  0  0  0  0  0  0  0  0  0  0  0
    1.4368    0.9522    4.2093 H   0  0  0  0  0  0  0  0  0  0  0  0
    0.8373    0.5020    5.8237 H   0  0  0  0  0  0  0  0  0  0  0  0
    2.3278    0.2207    7.6339 H   0  0  0  0  0  0  0  0  0  0  0  0
    4.6061    0.4326    8.5403 H   0  0  0  0  0  0  0  0  0  0  0  0
    6.5184    0.7226    7.0178 H   0  0  0  0  0  0  0  0  0  0  0  0
    6.1557    0.8012    4.5847 H   0  0  0  0  0  0  0  0  0  0  0  0
    5.4795    1.6918    2.8184 H   0  0  0  0  0  0  0  0  0  0  0  0
    5.6750   -0.0757    2.7394 H   0  0  0  0  0  0  0  0  0  0  0  0
    4.6853    0.7656    1.5223 H   0  0  0  0  0  0  0  0  0  0  0  0
    0.0636   -4.8303   -0.4705 H   0  0  0  0  0  0  0  0  0  0  0  0
    1.0569   -2.9721   -2.8472 H   0  0  0  0  0  0  0  0  0  0  0  0
   -0.4718   -3.7688   -2.4040 H   0  0  0  0  0  0  0  0  0  0  0  0
   -0.4970   -2.2173   -3.2761 H   0  0  0  0  0  0  0  0  0  0  0  0
  1  2  1  0  0  0  0
  1 38  1  0  0  0  0
  1 39  1  0  0  0  0
  1 40  1  0  0  0  0
  2  7  2  0  0  0  0
  2  3  1  0  0  0  0
  3  4  2  0  0  0  0
  3 41  1  0  0  0  0
  4  5  1  0  0  0  0
  4 37  1  0  0  0  0
  5 36  1  0  0  0  0
  5  6  2  0  0  0  0
  6  7  1  0  0  0  0
  7 42  1  0  0  0  0
  8  6  1  6  0  0  0
  8 15  1  0  0  0  0
  8  9  1  0  0  0  0
  8 34  1  0  0  0  0
  9 10  1  6  0  0  0
  9 23  1  0  0  0  0
  9 11  1  0  0  0  0
 11 12  1  1  0  0  0
 11 13  1  0  0  0  0
 11 20  1  0  0  0  0
 13 14  1  6  0  0  0
 13 15  1  0  0  0  0
 13 16  1  0  0  0  0
 15 43  1  0  0  0  0
 16 17  1  1  0  0  0
 16 18  1  0  0  0  0
 16 19  1  0  0  0  0
 18 44  1  0  0  0  0
 18 45  1  0  0  0  0
 18 46  1  0  0  0  0
 19 47  1  0  0  0  0
 20 21  2  0  0  0  0
 20 22  1  0  0  0  0
 22 23  1  0  0  0  0
 22 25  1  0  0  0  0
 23 24  2  0  0  0  0
 25 26  1  0  0  0  0
 25 48  1  0  0  0  0
 25 49  1  0  0  0  0
 26 31  2  0  0  0  0
 26 27  1  0  0  0  0
 27 28  2  0  0  0  0
 27 50  1  0  0  0  0
 28 29  1  0  0  0  0
 28 51  1  0  0  0  0
 29 30  2  0  0  0  0
 29 52  1  0  0  0  0
 30 31  1  0  0  0  0
 30 53  1  0  0  0  0
 31 32  1  0  0  0  0
 32 33  1  0  0  0  0
 33 54  1  0  0  0  0
 33 55  1  0  0  0  0
 33 56  1  0  0  0  0
 34 35  2  0  0  0  0
 34 36  1  0  0  0  0
 36 57  1  0  0  0  0
 37 58  1  0  0  0  0
 37 59  1  0  0  0  0
 37 60  1  0  0  0  0
M  END
$$$$
ZINC65254747
 OpenBabel01252620473D

 38 40  0  0  0  0  0  0  0  0999 V2000
   -0.0187    1.5258    0.0104 C   0  0  0  0  0  0  0  0  0  0  0  0
    0.0021   -0.0041    0.0020 C   0  0  0  0  0  0  0  0  0  0  0  0
    0.6878   -0.4765   -1.2033 N   0  0  0  0  0  0  0  0  0  0  0  0
   -0.0906   -0.7103   -2.4132 C   0  0  0  0  0  0  0  0  0  0  0  0
    0.6451   -0.2795   -3.6815 C   0  0  0  0  0  0  0  0  0  0  0  0
    2.0155   -0.7970   -3.6415 N   0  0  0  0  0  0  0  0  0  0  0  0
    2.8381   -1.1549   -4.6427 C   0  0  0  0  0  0  0  0  0  0  0  0
    4.0154   -1.5780   -4.1128 C   0  0  0  0  0  0  0  0  0  0  0  0
    3.9220   -1.4782   -2.7166 C   0  0  0  0  0  0  0  0  0  0  0  0
    2.6796   -0.9930   -2.4378 C   0  0  0  0  0  0  0  0  0  0  0  0
    2.0271   -0.6776   -1.1609 C   0  0  0  0  0  0  0  0  0  0  0  0
    2.6547   -0.6045   -0.1208 O   0  0  0  0  0  0  0  0  0  0  0  0
    5.4130   -2.1519   -5.0195 S   0  0  0  0  0  0  0  0  0  0  0  0
    6.1555   -2.9831   -4.1380 O   0  0  0  0  0  0  0  0  0  0  0  0
    4.9235   -2.6139   -6.2709 O   0  0  0  0  0  0  0  0  0  0  0  0
    6.3632   -0.8341   -5.3403 N   0  0  0  0  0  2  0  0  0  0  0  0
    7.5535   -0.9887   -6.0546 C   0  0  0  0  0  0  0  0  0  0  0  0
    7.9388   -2.2463   -6.5016 C   0  0  0  0  0  0  0  0  0  0  0  0
    9.1161   -2.3955   -7.2080 C   0  0  0  0  0  0  0  0  0  0  0  0
    9.9113   -1.2949   -7.4702 C   0  0  0  0  0  0  0  0  0  0  0  0
    9.5307   -0.0416   -7.0267 C   0  0  0  0  0  0  0  0  0  0  0  0
    8.3518    0.1156   -6.3246 C   0  0  0  0  0  0  0  0  0  0  0  0
    1.0039    1.9031    0.0027 H   0  0  0  0  0  0  0  0  0  0  0  0
   -0.5459    1.8868   -0.8726 H   0  0  0  0  0  0  0  0  0  0  0  0
   -0.5289    1.8773    0.9072 H   0  0  0  0  0  0  0  0  0  0  0  0
    0.5293   -0.3651    0.8851 H   0  0  0  0  0  0  0  0  0  0  0  0
   -1.0205   -0.3814    0.0098 H   0  0  0  0  0  0  0  0  0  0  0  0
   -0.3203   -1.7735   -2.4837 H   0  0  0  0  0  0  0  0  0  0  0  0
   -1.0256   -0.1545   -2.3429 H   0  0  0  0  0  0  0  0  0  0  0  0
    0.1301   -0.6794   -4.5550 H   0  0  0  0  0  0  0  0  0  0  0  0
    0.6680    0.8088   -3.7375 H   0  0  0  0  0  0  0  0  0  0  0  0
    2.6017   -1.1130   -5.6957 H   0  0  0  0  0  0  0  0  0  0  0  0
    4.6878   -1.7365   -2.0002 H   0  0  0  0  0  0  0  0  0  0  0  0
    7.3186   -3.1063   -6.2966 H   0  0  0  0  0  0  0  0  0  0  0  0
    9.4162   -3.3729   -7.5559 H   0  0  0  0  0  0  0  0  0  0  0  0
   10.8318   -1.4145   -8.0222 H   0  0  0  0  0  0  0  0  0  0  0  0
   10.1540    0.8158   -7.2331 H   0  0  0  0  0  0  0  0  0  0  0  0
    8.0529    1.0954   -5.9824 H   0  0  0  0  0  0  0  0  0  0  0  0
  1  2  1  0  0  0  0
  1 23  1  0  0  0  0
  1 24  1  0  0  0  0
  1 25  1  0  0  0  0
  2  3  1  0  0  0  0
  2 26  1  0  0  0  0
  2 27  1  0  0  0  0
  3 11  1  0  0  0  0
  3  4  1  0  0  0  0
  4  5  1  0  0  0  0
  4 28  1  0  0  0  0
  4 29  1  0  0  0  0
  5  6  1  0  0  0  0
  5 30  1  0  0  0  0
  5 31  1  0  0  0  0
  6 10  1  0  0  0  0
  6  7  1  0  0  0  0
  7  8  2  0  0  0  0
  7 32  1  0  0  0  0
  8  9  1  0  0  0  0
  8 13  1  0  0  0  0
  9 10  2  0  0  0  0
  9 33  1  0  0  0  0
 10 11  1  0  0  0  0
 11 12  2  0  0  0  0
 13 14  2  0  0  0  0
 13 15  2  0  0  0  0
 13 16  1  0  0  0  0
 16 17  1  0  0  0  0
 17 22  2  0  0  0  0
 17 18  1  0  0  0  0
 18 19  2  0  0  0  0
 18 34  1  0  0  0  0
 19 20  1  0  0  0  0
 19 35  1  0  0  0  0
 20 21  2  0  0  0  0
 20 36  1  0  0  0  0
 21 22  1  0  0  0  0
 21 37  1  0  0  0  0
 22 38  1  0  0  0  0
M  END
$$$$
ZINC13214070
 OpenBabel01252620473D

 42 45  0  0  1  0  0  0  0  0999 V2000
    0.2606    1.3435    0.2443 C   0  0  0  0  0  0  0  0  0  0  0  0
    1.4904    1.9696    0.3288 C   0  0  0  0  0  0  0  0  0  0  0  0
    2.6508    1.2194    0.3095 C   0  0  0  0  0  0  0  0  0  0  0  0
    2.5818   -0.1585    0.2057 C   0  0  0  0  0  0  0  0  0  0  0  0
    1.3514   -0.7844    0.1213 C   0  0  0  0  0  0  0  0  0  0  0  0
    0.1912   -0.0331    0.1406 C   0  0  0  0  0  0  0  0  0  0  0  0
    1.2756   -2.2852    0.0077 C   0  0  2  0  0  0  0  0  0  0  0  0
    2.1134   -2.7434    0.5333 H   0  0  0  0  0  0  0  0  0  0  0  0
    1.2859   -2.6976   -1.4458 C   0  0  0  0  0  0  0  0  0  0  0  0
    0.1236   -3.3518   -1.6741 C   0  0  0  0  0  0  0  0  0  0  0  0
   -0.6641   -3.3924   -0.4266 C   0  0  0  0  0  0  0  0  0  0  0  0
   -1.7566   -3.9117   -0.3085 O   0  0  0  0  0  0  0  0  0  0  0  0
    0.0060   -2.7699    0.5620 N   0  0  0  0  0  0  0  0  0  0  0  0
   -0.4295   -2.6126    1.8811 C   0  0  0  0  0  0  0  0  0  0  0  0
    0.3669   -1.9387    2.8004 C   0  0  0  0  0  0  0  0  0  0  0  0
   -0.0585   -1.7801    4.1059 C   0  0  0  0  0  0  0  0  0  0  0  0
   -1.2768   -2.2894    4.5066 C   0  0  0  0  0  0  0  0  0  0  0  0
   -2.0853   -2.9679    3.5911 C   0  0  0  0  0  0  0  0  0  0  0  0
   -1.6576   -3.1233    2.2710 C   0  0  0  0  0  0  0  0  0  0  0  0
   -3.3886   -3.5138    4.0164 C   0  0  0  0  0  0  0  0  0  0  0  0
   -3.7628   -3.3727    5.1720 O   0  0  0  0  0  0  0  0  0  0  0  0
   -4.0944   -4.1072    3.2132 O   0  0  0  0  0  1  0  0  0  0  0  0
   -0.2569   -3.8842   -2.8592 O   0  5  0  0  0  0  0  0  0  0  0  0
    2.3505   -2.4382   -2.4217 C   0  0  0  0  0  0  0  0  0  0  0  0
    2.4871   -1.3226   -2.8922 O   0  0  0  0  0  0  0  0  0  0  0  0
    3.2497   -3.5213   -2.8306 C   0  0  0  0  0  0  0  0  0  0  0  0
    4.3460   -3.3980   -3.6567 C   0  0  0  0  0  0  0  0  0  0  0  0
    4.9047   -4.6790   -3.7727 C   0  0  0  0  0  0  0  0  0  0  0  0
    4.1447   -5.5153   -3.0297 C   0  0  0  0  0  0  0  0  0  0  0  0
    3.1549   -4.8153   -2.4606 O   0  0  0  0  0  0  0  0  0  0  0  0
    4.1693   -1.1856    0.1787 Br  0  0  0  0  0  0  0  0  0  0  0  0
   -0.6462    1.9298    0.2639 H   0  0  0  0  0  0  0  0  0  0  0  0
    1.5442    3.0453    0.4094 H   0  0  0  0  0  0  0  0  0  0  0  0
    3.6114    1.7086    0.3751 H   0  0  0  0  0  0  0  0  0  0  0  0
   -0.7697   -0.5218    0.0751 H   0  0  0  0  0  0  0  0  0  0  0  0
    1.3217   -1.5379    2.4933 H   0  0  0  0  0  0  0  0  0  0  0  0
    0.5650   -1.2560    4.8151 H   0  0  0  0  0  0  0  0  0  0  0  0
   -1.6052   -2.1639    5.5278 H   0  0  0  0  0  0  0  0  0  0  0  0
   -2.2797   -3.6432    1.5574 H   0  0  0  0  0  0  0  0  0  0  0  0
    4.7046   -2.4923   -4.1232 H   0  0  0  0  0  0  0  0  0  0  0  0
    5.7782   -4.9476   -4.3483 H   0  0  0  0  0  0  0  0  0  0  0  0
    4.3117   -6.5757   -2.9107 H   0  0  0  0  0  0  0  0  0  0  0  0
  1  6  2  0  0  0  0
  1  2  1  0  0  0  0
  1 32  1  0  0  0  0
  2  3  2  0  0  0  0
  2 33  1  0  0  0  0
  3  4  1  0  0  0  0
  3 34  1  0  0  0  0
  4  5  2  0  0  0  0
  4 31  1  0  0  0  0
  5  6  1  0  0  0  0
  5  7  1  0  0  0  0
  6 35  1  0  0  0  0
  7  8  1  1  0  0  0
  7 13  1  0  0  0  0
  7  9  1  0  0  0  0
  9 10  2  0  0  0  0
  9 24  1  0  0  0  0
 10 11  1  0  0  0  0
 10 23  1  0  0  0  0
 11 12  2  0  0  0  0
 11 13  1  0  0  0  0
 13 14  1  0  0  0  0
 14 19  2  0  0  0  0
 14 15  1  0  0  0  0
 15 16  2  0  0  0  0
 15 36  1  0  0  0  0
 16 17  1  0  0  0  0
 16 37  1  0  0  0  0
 17 18  2  0  0  0  0
 17 38  1  0  0  0  0
 18 19  1  0  0  0  0
 18 20  1  0  0  0  0
 19 39  1  0  0  0  0
 20 21  2  0  0  0  0
 20 22  1  0  0  0  0
 24 25  2  0  0  0  0
 24 26  1  0  0  0  0
 26 30  1  0  0  0  0
 26 27  2  0  0  0  0
 27 28  1  0  0  0  0
 27 40  1  0  0  0  0
 28 29  2  0  0  0  0
 28 41  1  0  0  0  0
 29 30  1  0  0  0  0
 29 42  1  0  0  0  0
M  CHG  1  23  -1
M  END
$$$$
ZINC02013572
 OpenBabel01252620473D

 21 21  0  0  0  0  0  0  0  0999 V2000
    0.7448    6.1633   -2.4746 C   0  0  0  0  0  0  0  0  0  0  0  0
    0.8552    5.4092   -1.1745 C   0  0  0  0  0  0  0  0  0  0  0  0
    0.7746    6.0879    0.0273 C   0  0  0  0  0  0  0  0  0  0  0  0
    0.8763    5.3963    1.2197 C   0  0  0  0  0  0  0  0  0  0  0  0
    1.0587    4.0259    1.2106 C   0  0  0  0  0  0  0  0  0  0  0  0
    1.1384    3.3473    0.0092 C   0  0  0  0  0  0  0  0  0  0  0  0
    1.0414    4.0397   -1.1836 C   0  0  0  0  0  0  0  0  0  0  0  0
    1.3708    1.6007   -0.0024 S   0  0  0  0  0  0  0  0  0  0  0  0
    1.9822    1.2642    1.2353 O   0  0  0  0  0  0  0  0  0  0  0  0
    1.9585    1.2775   -1.2552 O   0  0  0  0  0  0  0  0  0  0  0  0
    1.1701    3.2719    2.5107 C   0  0  0  0  0  0  0  0  0  0  0  0
    1.7369    6.4804   -2.7960 H   0  0  0  0  0  0  0  0  0  0  0  0
    0.3065    5.5159   -3.2340 H   0  0  0  0  0  0  0  0  0  0  0  0
    0.1113    7.0391   -2.3339 H   0  0  0  0  0  0  0  0  0  0  0  0
    0.6324    7.1585    0.0344 H   0  0  0  0  0  0  0  0  0  0  0  0
    0.8136    5.9265    2.1585 H   0  0  0  0  0  0  0  0  0  0  0  0
    1.1082    3.5101   -2.1224 H   0  0  0  0  0  0  0  0  0  0  0  0
    2.2156    3.2254    2.8153 H   0  0  0  0  0  0  0  0  0  0  0  0
    0.5903    3.7841    3.2785 H   0  0  0  0  0  0  0  0  0  0  0  0
    0.7848    2.2609    2.3785 H   0  0  0  0  0  0  0  0  0  0  0  0
   -0.0110    0.9628    0.0073 O   0  0  0  0  0  1  0  0  0  0  0  0
  1  2  1  0  0  0  0
  1 12  1  0  0  0  0
  1 13  1  0  0  0  0
  1 14  1  0  0  0  0
  2  7  2  0  0  0  0
  2  3  1  0  0  0  0
  3  4  2  0  0  0  0
  3 15  1  0  0  0  0
  4  5  1  0  0  0  0
  4 16  1  0  0  0  0
  5  6  2  0  0  0  0
  5 11  1  0  0  0  0
  6  7  1  0  0  0  0
  6  8  1  0  0  0  0
  7 17  1  0  0  0  0
  8  9  2  0  0  0  0
  8 10  2  0  0  0  0
  8 21  1  0  0  0  0
 11 18  1  0  0  0  0
 11 19  1  0  0  0  0
 11 20  1  0  0  0  0
M  END
$$$$
ZINC16905238
 OpenBabel01252620473D

 36 37  0  0  1  0  0  0  0  0999 V2000
   -2.5326   -0.8935    1.8270 C   0  0  0  0  0  0  0  0  0  0  0  0
   -1.5665    0.1735    2.3457 C   0  0  0  0  0  0  0  0  0  0  0  0
   -0.1614   -0.4218    2.4575 C   0  0  2  0  0  0  0  0  0  0  0  0
   -0.1945   -1.3171    3.0785 H   0  0  0  0  0  0  0  0  0  0  0  0
    0.7643    0.5895    3.0830 C   0  0  0  0  0  0  0  0  0  0  0  0
    1.6819    1.0457    2.4428 O   0  0  0  0  0  0  0  0  0  0  0  0
    0.3163   -0.7632    1.1547 O   0  0  0  0  0  0  0  0  0  0  0  0
    1.2562   -1.7419    1.0790 C   0  0  0  0  0  0  0  0  0  0  0  0
    1.6790   -2.2036   -0.1611 C   0  0  0  0  0  0  0  0  0  0  0  0
    2.6357   -3.1986   -0.2464 C   0  0  0  0  0  0  0  0  0  0  0  0
    3.1781   -3.7408    0.8999 C   0  0  0  0  0  0  0  0  0  0  0  0
    2.7593   -3.2835    2.1543 C   0  0  0  0  0  0  0  0  0  0  0  0
    1.7953   -2.2733    2.2371 C   0  0  0  0  0  0  0  0  0  0  0  0
    3.3339   -3.8582    3.3794 C   0  0  0  0  0  0  0  0  0  0  0  0
    3.6336   -5.1797    3.4325 C   0  0  0  0  0  0  0  0  0  0  0  0
    3.3283   -6.2552    2.4648 C   0  0  0  0  0  0  0  0  0  0  0  0
    2.7220   -6.0343    1.4332 O   0  0  0  0  0  0  0  0  0  0  0  0
    3.7519   -7.4686    2.7762 N   0  0  0  0  0  0  0  0  0  0  0  0
    4.4167   -7.7102    3.9243 C   0  0  0  0  0  0  0  0  0  0  0  0
    5.0328   -9.1992    4.5025 S   0  0  0  0  0  0  0  0  0  0  0  0
    4.4997   -6.1019    4.6954 S   0  0  0  0  0  0  0  0  0  0  0  0
    3.4864   -8.5773    1.8561 C   0  0  0  0  0  0  0  0  0  0  0  0
   -2.5489   -1.7359    2.5185 H   0  0  0  0  0  0  0  0  0  0  0  0
   -3.5336   -0.4694    1.7474 H   0  0  0  0  0  0  0  0  0  0  0  0
   -2.2037   -1.2352    0.8457 H   0  0  0  0  0  0  0  0  0  0  0  0
   -1.8954    0.5152    3.3271 H   0  0  0  0  0  0  0  0  0  0  0  0
   -1.5502    1.0159    1.6543 H   0  0  0  0  0  0  0  0  0  0  0  0
    1.2587   -1.7833   -1.0629 H   0  0  0  0  0  0  0  0  0  0  0  0
    2.9596   -3.5522   -1.2141 H   0  0  0  0  0  0  0  0  0  0  0  0
    3.9256   -4.5171    0.8295 H   0  0  0  0  0  0  0  0  0  0  0  0
    1.4703   -1.9121    3.2016 H   0  0  0  0  0  0  0  0  0  0  0  0
    3.5172   -3.2280    4.2370 H   0  0  0  0  0  0  0  0  0  0  0  0
    3.8974   -9.4986    2.2691 H   0  0  0  0  0  0  0  0  0  0  0  0
    2.4105   -8.6878    1.7212 H   0  0  0  0  0  0  0  0  0  0  0  0
    3.9540   -8.3704    0.8934 H   0  0  0  0  0  0  0  0  0  0  0  0
    0.5696    0.9834    4.3513 O   0  0  0  0  0  1  0  0  0  0  0  0
  1  2  1  0  0  0  0
  1 23  1  0  0  0  0
  1 24  1  0  0  0  0
  1 25  1  0  0  0  0
  2  3  1  0  0  0  0
  2 26  1  0  0  0  0
  2 27  1  0  0  0  0
  3  4  1  1  0  0  0
  3  5  1  0  0  0  0
  3  7  1  0  0  0  0
  5  6  2  0  0  0  0
  5 36  1  0  0  0  0
  7  8  1  0  0  0  0
  8 13  2  0  0  0  0
  8  9  1  0  0  0  0
  9 10  2  0  0  0  0
  9 28  1  0  0  0  0
 10 11  1  0  0  0  0
 10 29  1  0  0  0  0
 11 12  2  0  0  0  0
 11 30  1  0  0  0  0
 12 13  1  0  0  0  0
 12 14  1  0  0  0  0
 13 31  1  0  0  0  0
 14 15  2  0  0  0  0
 14 32  1  0  0  0  0
 15 21  1  0  0  0  0
 15 16  1  0  0  0  0
 16 17  2  0  0  0  0
 16 18  1  0  0  0  0
 18 19  1  0  0  0  0
 18 22  1  0  0  0  0
 19 20  2  0  0  0  0
 19 21  1  0  0  0  0
 22 33  1  0  0  0  0
 22 34  1  0  0  0  0
 22 35  1  0  0  0  0
M  END
$$$$
ZINC13392318
 OpenBabel01252620473D

 52 54  0  0  0  0  0  0  0  0999 V2000
    8.1264   12.8959    0.9950 C   0  0  0  0  0  0  0  0  0  0  0  0
    7.7383   11.9536    0.1718 C   0  0  0  0  0  0  0  0  0  0  0  0
    7.3047   10.6144    0.7100 C   0  0  0  0  0  0  0  0  0  0  0  0
    5.9597   10.3034    0.2198 N   0  0  0  0  0  0  0  0  0  0  0  0
    4.8395   10.7887    0.8985 C   0  0  0  0  0  0  0  0  0  0  0  0
    4.6105   10.4188    2.2177 C   0  0  0  0  0  0  0  0  0  0  0  0
    3.5045   10.9043    2.8873 C   0  0  0  0  0  0  0  0  0  0  0  0
    2.6198   11.7493    2.2426 C   0  0  0  0  0  0  0  0  0  0  0  0
    2.8420   12.1154    0.9277 C   0  0  0  0  0  0  0  0  0  0  0  0
    3.9488   11.6377    0.2539 C   0  0  0  0  0  0  0  0  0  0  0  0
    5.7674    9.3764   -1.1389 S   0  0  0  0  0  0  0  0  0  0  0  0
    7.0137    9.3925   -1.8213 O   0  0  0  0  0  0  0  0  0  0  0  0
    4.5576    9.8005   -1.7520 O   0  0  0  0  0  0  0  0  0  0  0  0
    5.5068    7.7175   -0.6052 C   0  0  0  0  0  0  0  0  0  0  0  0
    6.5875    6.8712   -0.4290 C   0  0  0  0  0  0  0  0  0  0  0  0
    6.3918    5.5675   -0.0098 C   0  0  0  0  0  0  0  0  0  0  0  0
    5.1165    5.1041    0.2406 C   0  0  0  0  0  0  0  0  0  0  0  0
    4.0217    5.9509    0.0598 C   0  0  0  0  0  0  0  0  0  0  0  0
    4.2263    7.2655   -0.3635 C   0  0  0  0  0  0  0  0  0  0  0  0
    2.6524    5.4598    0.3211 C   0  0  0  0  0  0  0  0  0  0  0  0
    1.7013    6.2010    0.1676 O   0  0  0  0  0  0  0  0  0  0  0  0
    2.4583    4.1902    0.7296 N   0  0  0  0  0  0  0  0  0  0  0  0
    1.1651    3.6978    0.8812 C   0  0  0  0  0  0  0  0  0  0  0  0
    0.1277    4.2213    0.1224 C   0  0  0  0  0  0  0  0  0  0  0  0
   -1.1648    3.7261    0.2774 C   0  0  0  0  0  0  0  0  0  0  0  0
   -1.4175    2.6996    1.1919 C   0  0  0  0  0  0  0  0  0  0  0  0
   -0.3931    2.1807    1.9505 C   0  0  0  0  0  0  0  0  0  0  0  0
    0.9066    2.6713    1.8016 C   0  0  0  0  0  0  0  0  0  0  0  0
    2.0056    2.1108    2.6118 C   0  0  0  0  0  0  0  0  0  0  0  0
    3.1137    2.6059    2.5577 O   0  0  0  0  0  0  0  0  0  0  0  0
   -2.2713    4.2837   -0.5313 C   0  0  0  0  0  0  0  0  0  0  0  0
   -2.0521    5.1725   -1.3293 O   0  0  0  0  0  0  0  0  0  0  0  0
    8.4371   13.8556    0.6093 H   0  0  0  0  0  0  0  0  0  0  0  0
    8.1357   12.7130    2.0594 H   0  0  0  0  0  0  0  0  0  0  0  0
    7.7290   12.1366   -0.8925 H   0  0  0  0  0  0  0  0  0  0  0  0
    7.2961   10.6462    1.7995 H   0  0  0  0  0  0  0  0  0  0  0  0
    8.0006    9.8455    0.3745 H   0  0  0  0  0  0  0  0  0  0  0  0
    5.2986    9.7553    2.7204 H   0  0  0  0  0  0  0  0  0  0  0  0
    3.3280   10.6204    3.9143 H   0  0  0  0  0  0  0  0  0  0  0  0
    1.7536   12.1245    2.7674 H   0  0  0  0  0  0  0  0  0  0  0  0
    2.1493   12.7758    0.4273 H   0  0  0  0  0  0  0  0  0  0  0  0
    4.1215   11.9237   -0.7731 H   0  0  0  0  0  0  0  0  0  0  0  0
    7.5881    7.2303   -0.6193 H   0  0  0  0  0  0  0  0  0  0  0  0
    7.2394    4.9121    0.1258 H   0  0  0  0  0  0  0  0  0  0  0  0
    4.9654    4.0874    0.5721 H   0  0  0  0  0  0  0  0  0  0  0  0
    3.3838    7.9269   -0.5017 H   0  0  0  0  0  0  0  0  0  0  0  0
    3.2197    3.6195    0.9180 H   0  0  0  0  0  0  0  0  0  0  0  0
    0.3225    5.0114   -0.5877 H   0  0  0  0  0  0  0  0  0  0  0  0
   -2.4203    2.3153    1.3064 H   0  0  0  0  0  0  0  0  0  0  0  0
   -0.5934    1.3901    2.6586 H   0  0  0  0  0  0  0  0  0  0  0  0
    1.7799    1.0501    3.4113 O   0  0  0  0  0  1  0  0  0  0  0  0
   -3.5217    3.8057   -0.3823 O   0  0  0  0  0  1  0  0  0  0  0  0
  1  2  2  0  0  0  0
  1 33  1  0  0  0  0
  1 34  1  0  0  0  0
  2  3  1  0  0  0  0
  2 35  1  0  0  0  0
  3  4  1  0  0  0  0
  3 36  1  0  0  0  0
  3 37  1  0  0  0  0
  4  5  1  0  0  0  0
  4 11  1  0  0  0  0
  5 10  2  0  0  0  0
  5  6  1  0  0  0  0
  6  7  2  0  0  0  0
  6 38  1  0  0  0  0
  7  8  1  0  0  0  0
  7 39  1  0  0  0  0
  8  9  2  0  0  0  0
  8 40  1  0  0  0  0
  9 10  1  0  0  0  0
  9 41  1  0  0  0  0
 10 42  1  0  0  0  0
 11 12  2  0  0  0  0
 11 13  2  0  0  0  0
 11 14  1  0  0  0  0
 14 19  2  0  0  0  0
 14 15  1  0  0  0  0
 15 16  2  0  0  0  0
 15 43  1  0  0  0  0
 16 17  1  0  0  0  0
 16 44  1  0  0  0  0
 17 18  2  0  0  0  0
 17 45  1  0  0  0  0
 18 19  1  0  0  0  0
 18 20  1  0  0  0  0
 19 46  1  0  0  0  0
 20 21  2  0  0  0  0
 20 22  1  0  0  0  0
 22 23  1  0  0  0  0
 22 47  1  0  0  0  0
 23 28  2  0  0  0  0
 23 24  1  0  0  0  0
 24 25  2  0  0  0  0
 24 48  1  0  0  0  0
 25 26  1  0  0  0  0
 25 31  1  0  0  0  0
 26 27  2  0  0  0  0
 26 49  1  0  0  0  0
 27 28  1  0  0  0  0
 27 50  1  0  0  0  0
 28 29  1  0  0  0  0
 29 30  2  0  0  0  0
 29 51  1  0  0  0  0
 31 32  2  0  0  0  0
 31 52  1  0  0  0  0
M  END
$$$$
ZINC22629420
 OpenBabel01252620473D

 51 53  0  0  0  0  0  0  0  0999 V2000
   -2.7198    2.9446    4.7629 C   0  0  0  0  0  0  0  0  0  0  0  0
   -2.0158    2.4566    3.5230 C   0  0  0  0  0  0  0  0  0  0  0  0
   -2.3759    1.2496    2.9535 C   0  0  0  0  0  0  0  0  0  0  0  0
   -1.7300    0.8019    1.8162 C   0  0  0  0  0  0  0  0  0  0  0  0
   -0.7248    1.5618    1.2479 C   0  0  0  0  0  0  0  0  0  0  0  0
   -0.3615    2.7665    1.8201 C   0  0  0  0  0  0  0  0  0  0  0  0
   -1.0102    3.2162    2.9549 C   0  0  0  0  0  0  0  0  0  0  0  0
   -0.0208    1.0738    0.0080 C   0  0  0  0  0  0  0  0  0  0  0  0
   -0.7263    1.5636   -1.1789 N   0  0  0  0  0  0  0  0  0  0  0  0
   -0.2737    1.2501   -2.4090 C   0  0  0  0  0  0  0  0  0  0  0  0
    0.7175    0.5625   -2.5335 O   0  0  0  0  0  0  0  0  0  0  0  0
   -0.9995    1.7539   -3.6299 C   0  0  0  0  0  0  0  0  0  0  0  0
   -0.1539    1.1679   -5.1191 S   0  0  0  0  0  0  0  0  0  0  0  0
   -1.1839    1.8828   -6.3572 C   0  0  0  0  0  0  0  0  0  0  0  0
   -0.8872    1.6843   -7.6714 N   0  0  0  0  0  0  0  0  0  0  0  0
   -1.6780    2.2206   -8.6253 C   0  0  0  0  0  0  0  0  0  0  0  0
   -1.4297    2.0491   -9.8075 O   0  5  0  0  0  0  0  0  0  0  0  0
   -2.7900    2.9849   -8.2305 C   0  0  0  0  0  0  0  0  0  0  0  0
   -3.0351    3.1543   -6.8983 C   0  0  0  0  0  0  0  0  0  0  0  0
   -2.2294    2.6013   -5.9954 N   0  0  0  0  0  0  0  0  0  0  0  0
   -4.2206    3.9693   -6.4494 C   0  0  0  0  0  0  0  0  0  0  0  0
   -5.3868    3.0536   -6.1803 C   0  0  0  0  0  0  0  0  0  0  0  0
   -5.2671    1.8569   -6.3375 O   0  0  0  0  0  0  0  0  0  0  0  0
   -6.5629    3.5644   -5.7649 N   0  0  0  0  0  0  0  0  0  0  0  0
   -7.6965    2.6742   -5.5032 C   0  0  0  0  0  0  0  0  0  0  0  0
   -8.8820    3.4891   -5.0544 C   0  0  0  0  0  0  0  0  0  0  0  0
   -9.8605    4.0558   -5.8018 C   0  0  0  0  0  0  0  0  0  0  0  0
  -10.8632    4.7648   -5.1673 C   0  0  0  0  0  0  0  0  0  0  0  0
  -10.8326    4.8813   -3.8171 C   0  0  0  0  0  0  0  0  0  0  0  0
   -9.3578    3.9653   -3.4008 S   0  0  0  0  0  0  0  0  0  0  0  0
   -3.4825    2.2114    5.0641 H   0  0  0  0  0  0  0  0  0  0  0  0
   -3.2023    3.9109    4.5543 H   0  0  0  0  0  0  0  0  0  0  0  0
   -1.9885    3.0678    5.5753 H   0  0  0  0  0  0  0  0  0  0  0  0
   -3.1614    0.6560    3.3974 H   0  0  0  0  0  0  0  0  0  0  0  0
   -2.0112   -0.1413    1.3715 H   0  0  0  0  0  0  0  0  0  0  0  0
    0.4268    3.3581    1.3786 H   0  0  0  0  0  0  0  0  0  0  0  0
   -0.7292    4.1594    3.3997 H   0  0  0  0  0  0  0  0  0  0  0  0
    1.0129    1.4499    0.0013 H   0  0  0  0  0  0  0  0  0  0  0  0
   -0.0109   -0.0261    0.0008 H   0  0  0  0  0  0  0  0  0  0  0  0
   -1.6255    2.1872   -1.0660 H   0  0  0  0  0  0  0  0  0  0  0  0
   -2.0332    1.3779   -3.6232 H   0  0  0  0  0  0  0  0  0  0  0  0
   -1.0094    2.8538   -3.6227 H   0  0  0  0  0  0  0  0  0  0  0  0
   -3.3969    3.4013   -8.9075 H   0  0  0  0  0  0  0  0  0  0  0  0
   -4.4921    4.6867   -7.2378 H   0  0  0  0  0  0  0  0  0  0  0  0
   -3.9632    4.5152   -5.5298 H   0  0  0  0  0  0  0  0  0  0  0  0
   -6.6715    4.6497   -5.6223 H   0  0  0  0  0  0  0  0  0  0  0  0
   -7.9539    2.1282   -6.4228 H   0  0  0  0  0  0  0  0  0  0  0  0
   -7.4250    1.9568   -4.7147 H   0  0  0  0  0  0  0  0  0  0  0  0
   -9.8583    3.9527   -6.8769 H   0  0  0  0  0  0  0  0  0  0  0  0
  -11.6567    5.2229   -5.7390 H   0  0  0  0  0  0  0  0  0  0  0  0
  -11.5213    5.3952   -3.1630 H   0  0  0  0  0  0  0  0  0  0  0  0
  1  2  1  0  0  0  0
  1 31  1  0  0  0  0
  1 32  1  0  0  0  0
  1 33  1  0  0  0  0
  2  7  2  0  0  0  0
  2  3  1  0  0  0  0
  3  4  2  0  0  0  0
  3 34  1  0  0  0  0
  4  5  1  0  0  0  0
  4 35  1  0  0  0  0
  5  6  2  0  0  0  0
  5  8  1  0  0  0  0
  6  7  1  0  0  0  0
  6 36  1  0  0  0  0
  7 37  1  0  0  0  0
  8  9  1  0  0  0  0
  8 38  1  0  0  0  0
  8 39  1  0  0  0  0
  9 10  1  0  0  0  0
  9 40  1  0  0  0  0
 10 11  2  0  0  0  0
 10 12  1  0  0  0  0
 12 41  1  0  0  0  0
 12 42  1  0  0  0  0
 12 13  1  0  0  0  0
 13 14  1  0  0  0  0
 14 20  2  0  0  0  0
 14 15  1  0  0  0  0
 15 16  2  0  0  0  0
 16 17  1  0  0  0  0
 16 18  1  0  0  0  0
 18 43  1  0  0  0  0
 18 19  2  0  0  0  0
 19 20  1  0  0  0  0
 19 21  1  0  0  0  0
 21 22  1  0  0  0  0
 21 44  1  0  0  0  0
 21 45  1  0  0  0  0
 22 23  2  0  0  0  0
 22 24  1  0  0  0  0
 24 25  1  0  0  0  0
 24 46  1  0  0  0  0
 25 26  1  0  0  0  0
 25 47  1  0  0  0  0
 25 48  1  0  0  0  0
 26 30  1  0  0  0  0
 26 27  2  0  0  0  0
 27 28  1  0  0  0  0
 27 49  1  0  0  0  0
 28 29  2  0  0  0  0
 28 50  1  0  0  0  0
 29 30  1  0  0  0  0
 29 51  1  0  0  0  0
M  CHG  1  17  -1
M  END
$$$$
ZINC27986957
 OpenBabel01252620473D

 50 52  0  0  0  0  0  0  0  0999 V2000
    1.2485    9.7380   -2.1487 C   0  0  0  0  0  0  0  0  0  0  0  0
    2.1304    8.5818   -1.7529 C   0  0  0  0  0  0  0  0  0  0  0  0
    2.1071    7.8310   -0.6705 N   0  0  0  0  0  0  0  0  0  0  0  0
    2.9260    6.8895   -0.4877 N   0  0  0  0  0  0  0  0  0  0  0  0
    3.8647    6.5966   -1.3780 C   0  0  0  0  0  0  0  0  0  0  0  0
    3.5138    7.8419   -2.6159 S   0  0  0  0  0  0  0  0  0  0  0  0
    4.8416    5.6123   -1.3540 N   0  0  0  0  0  2  0  0  0  0  0  0
    4.9476    4.5823   -0.0617 S   0  0  0  0  0  0  0  0  0  0  0  0
    4.9213    5.3916    1.1060 O   0  0  0  0  0  0  0  0  0  0  0  0
    6.0136    3.6858   -0.3433 O   0  0  0  0  0  0  0  0  0  0  0  0
    3.4721    3.6195   -0.0405 C   0  0  0  0  0  0  0  0  0  0  0  0
    3.4200    2.4216   -0.7295 C   0  0  0  0  0  0  0  0  0  0  0  0
    2.2650    1.6646   -0.7149 C   0  0  0  0  0  0  0  0  0  0  0  0
    1.1549    2.1077   -0.0075 C   0  0  0  0  0  0  0  0  0  0  0  0
    1.2086    3.3143    0.6785 C   0  0  0  0  0  0  0  0  0  0  0  0
    2.3687    4.0635    0.6649 C   0  0  0  0  0  0  0  0  0  0  0  0
   -0.0162    1.3436    0.0094 N   0  0  0  0  0  0  0  0  0  0  0  0
    0.0572   -0.0022    0.0080 C   0  0  0  0  0  0  0  0  0  0  0  0
    1.1368   -0.5519   -0.0929 O   0  0  0  0  0  0  0  0  0  0  0  0
   -1.1749   -0.8097    0.1293 C   0  0  0  0  0  0  0  0  0  0  0  0
   -2.4155   -0.1816    0.2512 C   0  0  0  0  0  0  0  0  0  0  0  0
   -3.5620   -0.9412    0.3592 C   0  0  0  0  0  0  0  0  0  0  0  0
   -3.4831   -2.3226    0.3579 C   0  0  0  0  0  0  0  0  0  0  0  0
   -2.2561   -2.9515    0.2422 C   0  0  0  0  0  0  0  0  0  0  0  0
   -1.1024   -2.2037    0.1282 C   0  0  0  0  0  0  0  0  0  0  0  0
   -4.7391   -3.1459    0.4826 C   0  0  0  0  0  0  0  0  0  0  0  0
   -4.6518   -4.0233    1.7329 C   0  0  0  0  0  0  0  0  0  0  0  0
   -5.9491   -2.2163    0.5953 C   0  0  0  0  0  0  0  0  0  0  0  0
   -4.8917   -4.0339   -0.7540 C   0  0  0  0  0  0  0  0  0  0  0  0
    0.4971    9.9114   -1.3642 H   0  0  0  0  0  0  0  0  0  0  0  0
    0.7417    9.5048   -3.0967 H   0  0  0  0  0  0  0  0  0  0  0  0
    1.8630   10.6417   -2.2740 H   0  0  0  0  0  0  0  0  0  0  0  0
    4.2835    2.0776   -1.2794 H   0  0  0  0  0  0  0  0  0  0  0  0
    2.2251    0.7288   -1.2527 H   0  0  0  0  0  0  0  0  0  0  0  0
    0.3456    3.6638    1.2258 H   0  0  0  0  0  0  0  0  0  0  0  0
    2.4128    4.9993    1.2023 H   0  0  0  0  0  0  0  0  0  0  0  0
   -0.9972    1.8409    0.0238 H   0  0  0  0  0  0  0  0  0  0  0  0
   -2.4781    0.8965    0.2569 H   0  0  0  0  0  0  0  0  0  0  0  0
   -4.5230   -0.4566    0.4495 H   0  0  0  0  0  0  0  0  0  0  0  0
   -2.2014   -4.0301    0.2415 H   0  0  0  0  0  0  0  0  0  0  0  0
   -0.1452   -2.6958    0.0380 H   0  0  0  0  0  0  0  0  0  0  0  0
   -5.5686   -4.6242    1.8239 H   0  0  0  0  0  0  0  0  0  0  0  0
   -4.5421   -3.3849    2.6219 H   0  0  0  0  0  0  0  0  0  0  0  0
   -3.7819   -4.6916    1.6518 H   0  0  0  0  0  0  0  0  0  0  0  0
   -6.8659   -2.8173    0.6863 H   0  0  0  0  0  0  0  0  0  0  0  0
   -6.0119   -1.5855   -0.3037 H   0  0  0  0  0  0  0  0  0  0  0  0
   -5.8394   -1.5778    1.4843 H   0  0  0  0  0  0  0  0  0  0  0  0
   -5.8085   -4.6349   -0.6630 H   0  0  0  0  0  0  0  0  0  0  0  0
   -4.0217   -4.7022   -0.8351 H   0  0  0  0  0  0  0  0  0  0  0  0
   -4.9545   -3.4030   -1.6529 H   0  0  0  0  0  0  0  0  0  0  0  0
  1  2  1  0  0  0  0
  1 30  1  0  0  0  0
  1 31  1  0  0  0  0
  1 32  1  0  0  0  0
  2  6  1  0  0  0  0
  2  3  2  0  0  0  0
  3  4  1  0  0  0  0
  4  5  2  0  0  0  0
  5  6  1  0  0  0  0
  5  7  1  0  0  0  0
  7  8  1  0  0  0  0
  8  9  2  0  0  0  0
  8 10  2  0  0  0  0
  8 11  1  0  0  0  0
 11 16  2  0  0  0  0
 11 12  1  0  0  0  0
 12 13  2  0  0  0  0
 12 33  1  0  0  0  0
 13 14  1  0  0  0  0
 13 34  1  0  0  0  0
 14 15  2  0  0  0  0
 14 17  1  0  0  0  0
 15 16  1  0  0  0  0
 15 35  1  0  0  0  0
 16 36  1  0  0  0  0
 17 18  1  0  0  0  0
 17 37  1  0  0  0  0
 18 19  2  0  0  0  0
 18 20  1  0  0  0  0
 20 25  2  0  0  0  0
 20 21  1  0  0  0  0
 21 22  2  0  0  0  0
 21 38  1  0  0  0  0
 22 23  1  0  0  0  0
 22 39  1  0  0  0  0
 23 24  2  0  0  0  0
 23 26  1  0  0  0  0
 24 25  1  0  0  0  0
 24 40  1  0  0  0  0
 25 41  1  0  0  0  0
 26 27  1  0  0  0  0
 26 28  1  0  0  0  0
 26 29  1  0  0  0  0
 27 42  1  0  0  0  0
 27 43  1  0  0  0  0
 27 44  1  0  0  0  0
 28 45  1  0  0  0  0
 28 46  1  0  0  0  0
 28 47  1  0  0  0  0
 29 48  1  0  0  0  0
 29 49  1  0  0  0  0
 29 50  1  0  0  0  0
M  END
$$$$
ZINC49417508
 OpenBabel01252620473D

 31 31  0  0  0  0  0  0  0  0999 V2000
   -0.0187    1.5258    0.0104 C   0  0  0  0  0  0  0  0  0  0  0  0
    0.0021   -0.0041    0.0020 C   0  0  0  0  0  0  0  0  0  0  0  0
    0.7421   -0.5109    1.2415 C   0  0  0  0  0  0  0  0  0  0  0  0
   -1.6997   -0.6320    0.0149 S   0  0  0  0  0  0  0  0  0  0  0  0
   -2.3591   -0.2345    1.2093 O   0  0  0  0  0  0  0  0  0  0  0  0
   -2.3081   -0.4232   -1.2522 O   0  0  0  0  0  0  0  0  0  0  0  0
   -1.5459   -2.2757    0.1441 N   0  0  0  0  0  0  0  0  0  0  0  0
   -2.5984   -3.0214    0.1795 C   0  0  0  0  0  0  0  0  0  0  0  0
   -3.8242   -2.4619    0.1112 O   0  5  0  0  0  0  0  0  0  0  0  0
   -2.4585   -4.5173    0.2970 C   0  0  0  0  0  0  0  0  0  0  0  0
   -1.0731   -4.8632    0.3522 O   0  0  0  0  0  0  0  0  0  0  0  0
   -0.7705   -6.1845    0.4598 C   0  0  0  0  0  0  0  0  0  0  0  0
   -1.7862   -7.1277    0.5052 C   0  0  0  0  0  0  0  0  0  0  0  0
   -1.4775   -8.4699    0.6140 C   0  0  0  0  0  0  0  0  0  0  0  0
   -0.1548   -8.8743    0.6778 C   0  0  0  0  0  0  0  0  0  0  0  0
    0.8608   -7.9346    0.6326 C   0  0  0  0  0  0  0  0  0  0  0  0
    0.5552   -6.5910    0.5184 C   0  0  0  0  0  0  0  0  0  0  0  0
    1.8287   -5.4129    0.4551 Cl  0  0  0  0  0  0  0  0  0  0  0  0
    0.1451  -10.1873    0.7846 F   0  0  0  0  0  0  0  0  0  0  0  0
    1.0039    1.9031    0.0027 H   0  0  0  0  0  0  0  0  0  0  0  0
   -0.5459    1.8868   -0.8726 H   0  0  0  0  0  0  0  0  0  0  0  0
   -0.5289    1.8773    0.9072 H   0  0  0  0  0  0  0  0  0  0  0  0
    0.5123   -0.3556   -0.8948 H   0  0  0  0  0  0  0  0  0  0  0  0
    0.7568   -1.6008    1.2356 H   0  0  0  0  0  0  0  0  0  0  0  0
    1.7647   -0.1336    1.2338 H   0  0  0  0  0  0  0  0  0  0  0  0
    0.2319   -0.1594    2.1383 H   0  0  0  0  0  0  0  0  0  0  0  0
   -2.9546   -4.8584    1.2057 H   0  0  0  0  0  0  0  0  0  0  0  0
   -2.9178   -4.9944   -0.5687 H   0  0  0  0  0  0  0  0  0  0  0  0
   -2.8181   -6.8130    0.4559 H   0  0  0  0  0  0  0  0  0  0  0  0
   -2.2686   -9.2043    0.6498 H   0  0  0  0  0  0  0  0  0  0  0  0
    1.8921   -8.2514    0.6824 H   0  0  0  0  0  0  0  0  0  0  0  0
  1  2  1  0  0  0  0
  1 20  1  0  0  0  0
  1 21  1  0  0  0  0
  1 22  1  0  0  0  0
  2  3  1  0  0  0  0
  2  4  1  0  0  0  0
  2 23  1  0  0  0  0
  3 24  1  0  0  0  0
  3 25  1  0  0  0  0
  3 26  1  0  0  0  0
  4  5  2  0  0  0  0
  4  6  2  0  0  0  0
  4  7  1  0  0  0  0
  7  8  2  0  0  0  0
  8  9  1  0  0  0  0
  8 10  1  0  0  0  0
 10 11  1  0  0  0  0
 10 27  1  0  0  0  0
 10 28  1  0  0  0  0
 11 12  1  0  0  0  0
 12 17  2  0  0  0  0
 12 13  1  0  0  0  0
 13 14  2  0  0  0  0
 13 29  1  0  0  0  0
 14 15  1  0  0  0  0
 14 30  1  0  0  0  0
 15 16  2  0  0  0  0
 15 19  1  0  0  0  0
 16 17  1  0  0  0  0
 16 31  1  0  0  0  0
 17 18  1  0  0  0  0
M  CHG  1   9  -1
M  END
$$$$
ZINC40081609
 OpenBabel01252620473D

 50 52  0  0  1  0  0  0  0  0999 V2000
   -4.2893   -2.1096    5.8375 C   0  0  0  0  0  0  0  0  0  0  0  0
   -3.5372   -2.8890    4.7568 C   0  0  0  0  0  0  0  0  0  0  0  0
   -2.1418   -2.9042    5.0645 O   0  0  0  0  0  0  0  0  0  0  0  0
   -1.3272   -3.5594    4.1994 C   0  0  0  0  0  0  0  0  0  0  0  0
   -1.8628   -4.1716    3.0713 C   0  0  0  0  0  0  0  0  0  0  0  0
   -1.0401   -4.8369    2.1910 C   0  0  0  0  0  0  0  0  0  0  0  0
    0.3361   -4.8967    2.4322 C   0  0  0  0  0  0  0  0  0  0  0  0
    0.8704   -4.2800    3.5674 C   0  0  0  0  0  0  0  0  0  0  0  0
    0.0410   -3.6120    4.4401 C   0  0  0  0  0  0  0  0  0  0  0  0
    2.3525   -4.3417    3.8327 C   0  0  0  0  0  0  0  0  0  0  0  0
    1.2222   -5.6095    1.4910 C   0  0  0  0  0  0  0  0  0  0  0  0
    2.4292   -5.5655    1.6397 O   0  0  0  0  0  0  0  0  0  0  0  0
    0.6479   -6.3707    0.3770 C   0  0  0  0  0  0  0  0  0  0  0  0
    0.6768   -7.7142    0.2177 C   0  0  0  0  0  0  0  0  0  0  0  0
   -0.0160   -8.0693   -1.0386 C   0  0  0  0  0  0  0  0  0  0  0  0
   -0.1581   -9.1996   -1.4611 O   0  0  0  0  0  0  0  0  0  0  0  0
   -0.4660   -6.9560   -1.6453 N   0  0  0  0  0  0  0  0  0  0  0  0
   -0.0957   -5.8066   -0.8111 C   0  0  2  0  0  0  0  0  0  0  0  0
   -0.9895   -5.2791   -0.4779 H   0  0  0  0  0  0  0  0  0  0  0  0
    0.7983   -4.8740   -1.5869 C   0  0  0  0  0  0  0  0  0  0  0  0
    1.5397   -5.3526   -2.6508 C   0  0  0  0  0  0  0  0  0  0  0  0
    2.3598   -4.4974   -3.3626 C   0  0  0  0  0  0  0  0  0  0  0  0
    2.4397   -3.1625   -3.0114 C   0  0  0  0  0  0  0  0  0  0  0  0
    1.6991   -2.6817   -1.9485 C   0  0  0  0  0  0  0  0  0  0  0  0
    0.8731   -3.5364   -1.2379 C   0  0  0  0  0  0  0  0  0  0  0  0
    0.1451   -3.0665   -0.2014 F   0  0  0  0  0  0  0  0  0  0  0  0
   -1.2012   -6.9012   -2.9113 C   0  0  0  0  0  0  0  0  0  0  0  0
   -2.7029   -6.9935   -2.6334 C   0  0  0  0  0  0  0  0  0  0  0  0
   -3.1236   -5.8404   -1.9017 O   0  0  0  0  0  0  0  0  0  0  0  0
    1.2490   -8.5929    1.0728 O   0  5  0  0  0  0  0  0  0  0  0  0
   -3.9144   -1.0868    5.8752 H   0  0  0  0  0  0  0  0  0  0  0  0
   -5.3536   -2.0980    5.6028 H   0  0  0  0  0  0  0  0  0  0  0  0
   -4.1356   -2.5887    6.8044 H   0  0  0  0  0  0  0  0  0  0  0  0
   -3.9121   -3.9118    4.7192 H   0  0  0  0  0  0  0  0  0  0  0  0
   -3.6908   -2.4098    3.7899 H   0  0  0  0  0  0  0  0  0  0  0  0
   -2.9257   -4.1252    2.8859 H   0  0  0  0  0  0  0  0  0  0  0  0
   -1.4568   -5.3123    1.3153 H   0  0  0  0  0  0  0  0  0  0  0  0
    0.4534   -3.1318    5.3152 H   0  0  0  0  0  0  0  0  0  0  0  0
    2.8569   -3.5635    3.2597 H   0  0  0  0  0  0  0  0  0  0  0  0
    2.5381   -4.1881    4.8957 H   0  0  0  0  0  0  0  0  0  0  0  0
    2.7347   -5.3179    3.5344 H   0  0  0  0  0  0  0  0  0  0  0  0
    1.4784   -6.3951   -2.9259 H   0  0  0  0  0  0  0  0  0  0  0  0
    2.9390   -4.8723   -4.1935 H   0  0  0  0  0  0  0  0  0  0  0  0
    3.0813   -2.4953   -3.5678 H   0  0  0  0  0  0  0  0  0  0  0  0
    1.7619   -1.6390   -1.6741 H   0  0  0  0  0  0  0  0  0  0  0  0
   -0.9825   -5.9612   -3.4181 H   0  0  0  0  0  0  0  0  0  0  0  0
   -0.8970   -7.7347   -3.5445 H   0  0  0  0  0  0  0  0  0  0  0  0
   -3.2448   -7.0422   -3.5779 H   0  0  0  0  0  0  0  0  0  0  0  0
   -2.9098   -7.8900   -2.0491 H   0  0  0  0  0  0  0  0  0  0  0  0
   -4.0671   -5.8315   -1.6901 H   0  0  0  0  0  0  0  0  0  0  0  0
  1  2  1  0  0  0  0
  1 31  1  0  0  0  0
  1 32  1  0  0  0  0
  1 33  1  0  0  0  0
  2  3  1  0  0  0  0
  2 34  1  0  0  0  0
  2 35  1  0  0  0  0
  3  4  1  0  0  0  0
  4  9  2  0  0  0  0
  4  5  1  0  0  0  0
  5  6  2  0  0  0  0
  5 36  1  0  0  0  0
  6  7  1  0  0  0  0
  6 37  1  0  0  0  0
  7  8  2  0  0  0  0
  7 11  1  0  0  0  0
  8  9  1  0  0  0  0
  8 10  1  0  0  0  0
  9 38  1  0  0  0  0
 10 39  1  0  0  0  0
 10 40  1  0  0  0  0
 10 41  1  0  0  0  0
 11 12  2  0  0  0  0
 11 13  1  0  0  0  0
 13 18  1  0  0  0  0
 13 14  2  0  0  0  0
 14 15  1  0  0  0  0
 14 30  1  0  0  0  0
 15 16  2  0  0  0  0
 15 17  1  0  0  0  0
 17 18  1  0  0  0  0
 17 27  1  0  0  0  0
 18 19  1  1  0  0  0
 18 20  1  0  0  0  0
 20 25  2  0  0  0  0
 20 21  1  0  0  0  0
 21 22  2  0  0  0  0
 21 42  1  0  0  0  0
 22 23  1  0  0  0  0
 22 43  1  0  0  0  0
 23 24  2  0  0  0  0
 23 44  1  0  0  0  0
 24 25  1  0  0  0  0
 24 45  1  0  0  0  0
 25 26  1  0  0  0  0
 27 28  1  0  0  0  0
 27 46  1  0  0  0  0
 27 47  1  0  0  0  0
 28 29  1  0  0  0  0
 28 48  1  0  0  0  0
 28 49  1  0  0  0  0
 29 50  1  0  0  0  0
M  CHG  1  30  -1
M  END
$$$$
ZINC13059176
 OpenBabel01252620473D

 42 44  0  0  0  0  0  0  0  0999 V2000
    1.2062    7.9152    0.0325 C   0  0  0  0  0  0  0  0  0  0  0  0
    2.2828    8.7499    0.0271 C   0  0  0  0  0  0  0  0  0  0  0  0
    3.5821    8.2175    0.0123 C   0  0  0  0  0  0  0  0  0  0  0  0
    4.7151    9.0535    0.0064 C   0  0  0  0  0  0  0  0  0  0  0  0
    5.9487    8.4672    0.0093 C   0  0  0  0  0  0  0  0  0  0  0  0
    6.0580    7.0783    0.0002 C   0  0  0  0  0  0  0  0  0  0  0  0
    5.0003    6.3037    0.0002 N   0  0  0  0  0  0  0  0  0  0  0  0
    3.7662    6.8134    0.0085 C   0  0  0  0  0  0  0  0  0  0  0  0
    2.6306    5.9727    0.0090 C   0  0  0  0  0  0  0  0  0  0  0  0
    1.3710    6.5339    0.0241 C   0  0  0  0  0  0  0  0  0  0  0  0
    2.8224    4.2212   -0.0022 S   0  0  0  0  0  0  0  0  0  0  0  0
    1.1205    3.5933    0.0107 C   0  0  0  0  0  0  0  0  0  0  0  0
    1.1410    2.0865    0.0024 C   0  0  0  0  0  0  0  0  0  0  0  0
    2.1994    1.4944   -0.0109 O   0  0  0  0  0  0  0  0  0  0  0  0
   -0.0169    1.3968    0.0097 N   0  0  0  0  0  0  0  0  0  0  0  0
    0.0021   -0.0041    0.0020 N   0  0  0  0  0  0  0  0  0  0  0  0
   -0.7980   -0.8495    1.1800 S   0  0  0  0  0  0  0  0  0  0  0  0
   -0.7154   -2.2221    0.8218 O   0  0  0  0  0  0  0  0  0  0  0  0
   -0.3240   -0.3574    2.4260 O   0  0  0  0  0  0  0  0  0  0  0  0
   -2.4995   -0.4036    1.0768 C   0  0  0  0  0  0  0  0  0  0  0  0
   -2.9771    0.6657    1.8138 C   0  0  0  0  0  0  0  0  0  0  0  0
   -4.3070    1.0232    1.7340 C   0  0  0  0  0  0  0  0  0  0  0  0
   -5.1740    0.2967    0.9153 C   0  0  0  0  0  0  0  0  0  0  0  0
   -4.6864   -0.7844    0.1784 C   0  0  0  0  0  0  0  0  0  0  0  0
   -3.3531   -1.1278    0.2635 C   0  0  0  0  0  0  0  0  0  0  0  0
   -6.6005    0.6706    0.8288 C   0  0  0  0  0  0  0  0  0  0  0  0
   -7.3523    0.0369    0.1154 O   0  0  0  0  0  0  0  0  0  0  0  0
    0.2100    8.3320    0.0439 H   0  0  0  0  0  0  0  0  0  0  0  0
    2.1372    9.8200    0.0338 H   0  0  0  0  0  0  0  0  0  0  0  0
    4.6116   10.1286    0.0131 H   0  0  0  0  0  0  0  0  0  0  0  0
    6.8383    9.0796    0.0090 H   0  0  0  0  0  0  0  0  0  0  0  0
    7.0397    6.6281   -0.0067 H   0  0  0  0  0  0  0  0  0  0  0  0
    0.5017    5.8930    0.0290 H   0  0  0  0  0  0  0  0  0  0  0  0
    0.5934    3.9544   -0.8724 H   0  0  0  0  0  0  0  0  0  0  0  0
    0.6103    3.9448    0.9075 H   0  0  0  0  0  0  0  0  0  0  0  0
   -0.8635    1.8703    0.0163 H   0  0  0  0  0  0  0  0  0  0  0  0
    0.4838   -0.4788   -0.6933 H   0  0  0  0  0  0  0  0  0  0  0  0
   -2.3063    1.2242    2.4498 H   0  0  0  0  0  0  0  0  0  0  0  0
   -4.6776    1.8607    2.3063 H   0  0  0  0  0  0  0  0  0  0  0  0
   -5.3515   -1.3503   -0.4571 H   0  0  0  0  0  0  0  0  0  0  0  0
   -2.9745   -1.9636   -0.3062 H   0  0  0  0  0  0  0  0  0  0  0  0
   -7.0677    1.7142    1.5410 O   0  0  0  0  0  1  0  0  0  0  0  0
  1 10  2  0  0  0  0
  1  2  1  0  0  0  0
  1 28  1  0  0  0  0
  2  3  2  0  0  0  0
  2 29  1  0  0  0  0
  3  8  1  0  0  0  0
  3  4  1  0  0  0  0
  4  5  2  0  0  0  0
  4 30  1  0  0  0  0
  5  6  1  0  0  0  0
  5 31  1  0  0  0  0
  6  7  2  0  0  0  0
  6 32  1  0  0  0  0
  7  8  1  0  0  0  0
  8  9  2  0  0  0  0
  9 10  1  0  0  0  0
  9 11  1  0  0  0  0
 10 33  1  0  0  0  0
 11 12  1  0  0  0  0
 12 13  1  0  0  0  0
 12 34  1  0  0  0  0
 12 35  1  0  0  0  0
 13 14  2  0  0  0  0
 13 15  1  0  0  0  0
 15 16  1  0  0  0  0
 15 36  1  0  0  0  0
 16 17  1  0  0  0  0
 16 37  1  0  0  0  0
 17 18  2  0  0  0  0
 17 19  2  0  0  0  0
 17 20  1  0  0  0  0
 20 25  2  0  0  0  0
 20 21  1  0  0  0  0
 21 22  2  0  0  0  0
 21 38  1  0  0  0  0
 22 23  1  0  0  0  0
 22 39  1  0  0  0  0
 23 24  2  0  0  0  0
 23 26  1  0  0  0  0
 24 25  1  0  0  0  0
 24 40  1  0  0  0  0
 25 41  1  0  0  0  0
 26 27  2  0  0  0  0
 26 42  1  0  0  0  0
M  END
$$$$
ZINC13208253
 OpenBabel01252620473D

 44 46  0  0  1  0  0  0  0  0999 V2000
    0.7273    4.9692    4.3784 C   0  0  0  0  0  0  0  0  0  0  0  0
    1.2730    4.8941    2.9756 C   0  0  0  0  0  0  0  0  0  0  0  0
    1.8544    5.9137    2.3035 C   0  0  0  0  0  0  0  0  0  0  0  0
    2.2181    5.4237    1.0409 C   0  0  0  0  0  0  0  0  0  0  0  0
    1.8314    4.1013    1.0068 C   0  0  0  0  0  0  0  0  0  0  0  0
    1.2561    3.8085    2.1917 O   0  0  0  0  0  0  0  0  0  0  0  0
    2.0079    3.1788   -0.1186 C   0  0  0  0  0  0  0  0  0  0  0  0
    2.6235    3.5353   -1.1078 O   0  0  0  0  0  0  0  0  0  0  0  0
    1.4431    1.8257   -0.0539 C   0  0  0  0  0  0  0  0  0  0  0  0
    2.1345    0.6634   -0.0256 C   0  0  0  0  0  0  0  0  0  0  0  0
    1.1849   -0.4655    0.0395 C   0  0  0  0  0  0  0  0  0  0  0  0
    1.4983   -1.6389    0.0764 O   0  0  0  0  0  0  0  0  0  0  0  0
   -0.0786   -0.0031    0.0512 N   0  0  0  0  0  0  0  0  0  0  0  0
   -0.0227    1.4624   -0.0060 C   0  0  2  0  0  0  0  0  0  0  0  0
   -0.5297    1.8932    0.8700 H   0  0  0  0  0  0  0  0  0  0  0  0
   -0.7207    1.9597   -1.2455 C   0  0  0  0  0  0  0  0  0  0  0  0
   -0.4289    1.3980   -2.4751 C   0  0  0  0  0  0  0  0  0  0  0  0
   -1.0675    1.8520   -3.6140 C   0  0  0  0  0  0  0  0  0  0  0  0
   -1.9992    2.8685   -3.5264 C   0  0  0  0  0  0  0  0  0  0  0  0
   -2.2939    3.4333   -2.2942 C   0  0  0  0  0  0  0  0  0  0  0  0
   -1.6554    2.9722   -1.1518 C   0  0  0  0  0  0  0  0  0  0  0  0
   -3.2096    4.4335   -2.2055 O   0  0  0  0  0  0  0  0  0  0  0  0
   -1.2945   -0.8181    0.1101 C   0  0  0  0  0  0  0  0  0  0  0  0
   -1.7508   -1.1568   -1.3105 C   0  0  0  0  0  0  0  0  0  0  0  0
   -0.7711   -1.9845   -1.9408 O   0  0  0  0  0  0  0  0  0  0  0  0
   -1.1019   -2.3603   -3.2792 C   0  0  0  0  0  0  0  0  0  0  0  0
    3.4835    0.5527   -0.0527 O   0  5  0  0  0  0  0  0  0  0  0  0
    0.8785    5.9833    4.7768 H   0  0  0  0  0  0  0  0  0  0  0  0
    1.2529    4.2428    5.0156 H   0  0  0  0  0  0  0  0  0  0  0  0
   -0.3477    4.7363    4.3666 H   0  0  0  0  0  0  0  0  0  0  0  0
    2.0093    6.9176    2.6705 H   0  0  0  0  0  0  0  0  0  0  0  0
    2.7052    5.9748    0.2501 H   0  0  0  0  0  0  0  0  0  0  0  0
    0.2993    0.6036   -2.5457 H   0  0  0  0  0  0  0  0  0  0  0  0
   -0.8377    1.4119   -4.5732 H   0  0  0  0  0  0  0  0  0  0  0  0
   -2.4978    3.2228   -4.4165 H   0  0  0  0  0  0  0  0  0  0  0  0
   -1.8862    3.4075   -0.1908 H   0  0  0  0  0  0  0  0  0  0  0  0
   -3.4426    4.8808   -1.2279 H   0  0  0  0  0  0  0  0  0  0  0  0
   -1.0864   -1.7479    0.6599 H   0  0  0  0  0  0  0  0  0  0  0  0
   -2.0875   -0.2568    0.6259 H   0  0  0  0  0  0  0  0  0  0  0  0
   -2.7111   -1.6917   -1.2694 H   0  0  0  0  0  0  0  0  0  0  0  0
   -1.8726   -0.2283   -1.8877 H   0  0  0  0  0  0  0  0  0  0  0  0
   -0.3016   -2.9928   -3.6909 H   0  0  0  0  0  0  0  0  0  0  0  0
   -1.2101   -1.4570   -3.8976 H   0  0  0  0  0  0  0  0  0  0  0  0
   -2.0487   -2.9203   -3.2794 H   0  0  0  0  0  0  0  0  0  0  0  0
  1  2  1  0  0  0  0
  1 28  1  0  0  0  0
  1 29  1  0  0  0  0
  1 30  1  0  0  0  0
  2  6  1  0  0  0  0
  2  3  2  0  0  0  0
  3  4  1  0  0  0  0
  3 31  1  0  0  0  0
  4  5  2  0  0  0  0
  4 32  1  0  0  0  0
  5  6  1  0  0  0  0
  5  7  1  0  0  0  0
  7  8  2  0  0  0  0
  7  9  1  0  0  0  0
  9 14  1  0  0  0  0
  9 10  2  0  0  0  0
 10 11  1  0  0  0  0
 10 27  1  0  0  0  0
 11 12  2  0  0  0  0
 11 13  1  0  0  0  0
 13 14  1  0  0  0  0
 13 23  1  0  0  0  0
 14 15  1  1  0  0  0
 14 16  1  0  0  0  0
 16 21  2  0  0  0  0
 16 17  1  0  0  0  0
 17 18  2  0  0  0  0
 17 33  1  0  0  0  0
 18 19  1  0  0  0  0
 18 34  1  0  0  0  0
 19 20  2  0  0  0  0
 19 35  1  0  0  0  0
 20 21  1  0  0  0  0
 20 22  1  0  0  0  0
 21 36  1  0  0  0  0
 22 37  1  0  0  0  0
 23 24  1  0  0  0  0
 23 38  1  0  0  0  0
 23 39  1  0  0  0  0
 24 25  1  0  0  0  0
 24 40  1  0  0  0  0
 24 41  1  0  0  0  0
 25 26  1  0  0  0  0
 26 42  1  0  0  0  0
 26 43  1  0  0  0  0
 26 44  1  0  0  0  0
M  CHG  1  27  -1
M  END
$$$$
ZINC10386062
 OpenBabel01252620473D

 41 42  0  0  0  0  0  0  0  0999 V2000
    8.5534    8.1627   -8.4198 C   0  0  0  0  0  0  0  0  0  0  0  0
    8.6302    9.4816   -7.7867 N   0  0  0  0  0  0  0  0  0  0  0  0
    9.9325   10.1190   -7.5773 C   0  0  0  0  0  0  0  0  0  0  0  0
    7.2448   10.2520   -7.3076 S   0  0  0  0  0  0  0  0  0  0  0  0
    6.1904    9.7204   -8.0981 O   0  0  0  0  0  0  0  0  0  0  0  0
    7.5440   11.6406   -7.2711 O   0  0  0  0  0  0  0  0  0  0  0  0
    6.9244    9.7621   -5.6456 C   0  0  0  0  0  0  0  0  0  0  0  0
    7.4513   10.4957   -4.5976 C   0  0  0  0  0  0  0  0  0  0  0  0
    7.2036   10.1181   -3.2940 C   0  0  0  0  0  0  0  0  0  0  0  0
    6.4197    8.9929   -3.0337 C   0  0  0  0  0  0  0  0  0  0  0  0
    5.8960    8.2539   -4.0956 C   0  0  0  0  0  0  0  0  0  0  0  0
    6.1466    8.6457   -5.3944 C   0  0  0  0  0  0  0  0  0  0  0  0
    6.1505    8.5822   -1.6392 C   0  0  0  0  0  0  0  0  0  0  0  0
    6.6122    9.2247   -0.7164 O   0  0  0  0  0  0  0  0  0  0  0  0
    5.3933    7.4952   -1.3911 N   0  0  0  0  0  0  0  0  0  0  0  0
    5.1265    7.0882   -0.0093 C   0  0  0  0  0  0  0  0  0  0  0  0
    4.2626    5.8534   -0.0072 C   0  0  0  0  0  0  0  0  0  0  0  0
    4.6821    4.6221   -0.0178 N   0  0  0  0  0  0  0  0  0  0  0  0
    3.6736    3.8234   -0.0068 N   0  0  0  0  0  0  0  0  0  0  0  0
    2.5652    4.5244    0.0019 C   0  0  0  0  0  0  0  0  0  0  0  0
    2.9154    5.8244    0.0055 O   0  0  0  0  0  0  0  0  0  0  0  0
    0.9237    3.8841    0.0141 S   0  0  0  0  0  0  0  0  0  0  0  0
    1.2786    2.1093    0.0012 C   0  0  0  0  0  0  0  0  0  0  0  0
   -0.0161    1.3381    0.0094 C   0  0  0  0  0  0  0  0  0  0  0  0
   -1.0706    1.9279    0.0176 O   0  0  0  0  0  0  0  0  0  0  0  0
    8.4639    8.2827   -9.4995 H   0  0  0  0  0  0  0  0  0  0  0  0
    9.4563    7.5967   -8.1908 H   0  0  0  0  0  0  0  0  0  0  0  0
    7.6830    7.6276   -8.0403 H   0  0  0  0  0  0  0  0  0  0  0  0
   10.3260    9.8301   -6.6028 H   0  0  0  0  0  0  0  0  0  0  0  0
   10.6232    9.7990   -8.3575 H   0  0  0  0  0  0  0  0  0  0  0  0
    9.8173   11.2022   -7.6160 H   0  0  0  0  0  0  0  0  0  0  0  0
    8.0577   11.3661   -4.8004 H   0  0  0  0  0  0  0  0  0  0  0  0
    7.6149   10.6920   -2.4768 H   0  0  0  0  0  0  0  0  0  0  0  0
    5.2924    7.3798   -3.9009 H   0  0  0  0  0  0  0  0  0  0  0  0
    5.7382    8.0773   -6.2170 H   0  0  0  0  0  0  0  0  0  0  0  0
    5.0249    6.9824   -2.1275 H   0  0  0  0  0  0  0  0  0  0  0  0
    4.6105    7.8935    0.5135 H   0  0  0  0  0  0  0  0  0  0  0  0
    6.0689    6.8731    0.4945 H   0  0  0  0  0  0  0  0  0  0  0  0
    1.8621    1.8490    0.8842 H   0  0  0  0  0  0  0  0  0  0  0  0
    1.8451    1.8585   -0.8956 H   0  0  0  0  0  0  0  0  0  0  0  0
    0.0021   -0.0041    0.0020 O   0  0  0  0  0  1  0  0  0  0  0  0
  1  2  1  0  0  0  0
  1 26  1  0  0  0  0
  1 27  1  0  0  0  0
  1 28  1  0  0  0  0
  2  3  1  0  0  0  0
  2  4  1  0  0  0  0
  3 29  1  0  0  0  0
  3 30  1  0  0  0  0
  3 31  1  0  0  0  0
  4  5  2  0  0  0  0
  4  6  2  0  0  0  0
  4  7  1  0  0  0  0
  7 12  2  0  0  0  0
  7  8  1  0  0  0  0
  8  9  2  0  0  0  0
  8 32  1  0  0  0  0
  9 10  1  0  0  0  0
  9 33  1  0  0  0  0
 10 11  2  0  0  0  0
 10 13  1  0  0  0  0
 11 12  1  0  0  0  0
 11 34  1  0  0  0  0
 12 35  1  0  0  0  0
 13 14  2  0  0  0  0
 13 15  1  0  0  0  0
 15 16  1  0  0  0  0
 15 36  1  0  0  0  0
 16 17  1  0  0  0  0
 16 37  1  0  0  0  0
 16 38  1  0  0  0  0
 17 21  1  0  0  0  0
 17 18  2  0  0  0  0
 18 19  1  0  0  0  0
 19 20  2  0  0  0  0
 20 21  1  0  0  0  0
 20 22  1  0  0  0  0
 22 23  1  0  0  0  0
 23 24  1  0  0  0  0
 23 39  1  0  0  0  0
 23 40  1  0  0  0  0
 24 25  2  0  0  0  0
 24 41  1  0  0  0  0
M  END
$$$$
ZINC13394839
 OpenBabel01252620473D

 57 58  0  0  0  0  0  0  0  0999 V2000
    3.8073  -13.4776    1.3656 C   0  0  0  0  0  0  0  0  0  0  0  0
    3.7274  -12.6756    0.0651 C   0  0  0  0  0  0  0  0  0  0  0  0
    3.7255  -11.1800    0.3875 C   0  0  0  0  0  0  0  0  0  0  0  0
    3.6509  -10.4309   -0.8271 O   0  0  0  0  0  0  0  0  0  0  0  0
    3.6394   -9.0769   -0.7170 C   0  0  0  0  0  0  0  0  0  0  0  0
    4.8404   -8.3686   -0.7253 C   0  0  0  0  0  0  0  0  0  0  0  0
    4.8319   -6.9924   -0.6136 C   0  0  0  0  0  0  0  0  0  0  0  0
    3.6151   -6.3107   -0.4925 C   0  0  0  0  0  0  0  0  0  0  0  0
    2.4140   -7.0282   -0.4795 C   0  0  0  0  0  0  0  0  0  0  0  0
    2.4312   -8.4020   -0.5969 C   0  0  0  0  0  0  0  0  0  0  0  0
    0.9399   -9.2906   -0.5879 Cl  0  0  0  0  0  0  0  0  0  0  0  0
    3.5998   -4.8457   -0.3732 C   0  0  0  0  0  0  0  0  0  0  0  0
    2.4254   -4.1901   -0.2565 C   0  0  0  0  0  0  0  0  0  0  0  0
    2.4101   -2.7329   -0.1379 C   0  0  0  0  0  0  0  0  0  0  0  0
    3.4564   -2.1107   -0.1444 O   0  0  0  0  0  0  0  0  0  0  0  0
    1.2376   -2.0785   -0.0214 N   0  0  0  0  0  0  0  0  0  0  0  0
    1.2145   -0.6805   -0.0190 C   0  0  0  0  0  0  0  0  0  0  0  0
    2.1370    0.0321   -0.7743 C   0  0  0  0  0  0  0  0  0  0  0  0
    2.1118    1.4129   -0.7694 C   0  0  0  0  0  0  0  0  0  0  0  0
    1.1694    2.0860   -0.0136 C   0  0  0  0  0  0  0  0  0  0  0  0
    0.2495    1.3796    0.7395 C   0  0  0  0  0  0  0  0  0  0  0  0
    0.2693   -0.0013    0.7390 C   0  0  0  0  0  0  0  0  0  0  0  0
    1.1410    3.8478   -0.0097 S   0  0  0  0  0  0  0  0  0  0  0  0
    0.5133    4.2412    1.2029 O   0  0  0  0  0  0  0  0  0  0  0  0
    2.4487    4.2759   -0.3645 O   0  0  0  0  0  0  0  0  0  0  0  0
    0.1376    4.3240   -1.2381 N   0  0  0  0  0  0  0  0  0  0  0  0
   -1.2912    4.0052   -1.1822 C   0  0  0  0  0  0  0  0  0  0  0  0
   -2.0437    4.8538   -2.2091 C   0  0  0  0  0  0  0  0  0  0  0  0
   -3.5134    4.5258   -2.1515 C   0  0  0  0  0  0  0  0  0  0  0  0
   -3.9176    3.6982   -1.3694 O   0  0  0  0  0  0  0  0  0  0  0  0
    6.0208   -9.0336   -0.8431 O   0  0  0  0  0  0  0  0  0  0  0  0
    7.2125   -8.2449   -0.8439 C   0  0  0  0  0  0  0  0  0  0  0  0
    2.9465  -13.2419    1.9913 H   0  0  0  0  0  0  0  0  0  0  0  0
    3.8086  -14.5431    1.1359 H   0  0  0  0  0  0  0  0  0  0  0  0
    4.7238  -13.2192    1.8961 H   0  0  0  0  0  0  0  0  0  0  0  0
    2.8109  -12.9341   -0.4654 H   0  0  0  0  0  0  0  0  0  0  0  0
    4.5882  -12.9113   -0.5606 H   0  0  0  0  0  0  0  0  0  0  0  0
    4.6420  -10.9215    0.9180 H   0  0  0  0  0  0  0  0  0  0  0  0
    2.8647  -10.9443    1.0133 H   0  0  0  0  0  0  0  0  0  0  0  0
    5.7618   -6.4431   -0.6192 H   0  0  0  0  0  0  0  0  0  0  0  0
    1.4737   -6.5060   -0.3814 H   0  0  0  0  0  0  0  0  0  0  0  0
    4.5281   -4.2937   -0.3790 H   0  0  0  0  0  0  0  0  0  0  0  0
    1.4971   -4.7421   -0.2508 H   0  0  0  0  0  0  0  0  0  0  0  0
    0.4098   -2.5774    0.0607 H   0  0  0  0  0  0  0  0  0  0  0  0
    2.8730   -0.4930   -1.3650 H   0  0  0  0  0  0  0  0  0  0  0  0
    2.8316    1.9677   -1.3529 H   0  0  0  0  0  0  0  0  0  0  0  0
   -0.4851    1.9083    1.3286 H   0  0  0  0  0  0  0  0  0  0  0  0
   -0.4496   -0.5525    1.3270 H   0  0  0  0  0  0  0  0  0  0  0  0
    0.4959    4.8141   -1.9946 H   0  0  0  0  0  0  0  0  0  0  0  0
   -1.4368    2.9487   -1.4072 H   0  0  0  0  0  0  0  0  0  0  0  0
   -1.6726    4.2199   -0.1839 H   0  0  0  0  0  0  0  0  0  0  0  0
   -1.8981    5.9103   -1.9840 H   0  0  0  0  0  0  0  0  0  0  0  0
   -1.6623    4.6390   -3.2073 H   0  0  0  0  0  0  0  0  0  0  0  0
    7.1852   -7.5463   -1.6801 H   0  0  0  0  0  0  0  0  0  0  0  0
    7.2812   -7.6895    0.0914 H   0  0  0  0  0  0  0  0  0  0  0  0
    8.0799   -8.8973   -0.9437 H   0  0  0  0  0  0  0  0  0  0  0  0
   -4.3736    5.1530   -2.9691 O   0  0  0  0  0  1  0  0  0  0  0  0
  1  2  1  0  0  0  0
  1 33  1  0  0  0  0
  1 34  1  0  0  0  0
  1 35  1  0  0  0  0
  2  3  1  0  0  0  0
  2 36  1  0  0  0  0
  2 37  1  0  0  0  0
  3  4  1  0  0  0  0
  3 38  1  0  0  0  0
  3 39  1  0  0  0  0
  4  5  1  0  0  0  0
  5 10  2  0  0  0  0
  5  6  1  0  0  0  0
  6  7  2  0  0  0  0
  6 31  1  0  0  0  0
  7  8  1  0  0  0  0
  7 40  1  0  0  0  0
  8  9  2  0  0  0  0
  8 12  1  0  0  0  0
  9 10  1  0  0  0  0
  9 41  1  0  0  0  0
 10 11  1  0  0  0  0
 12 13  2  0  0  0  0
 12 42  1  0  0  0  0
 13 14  1  0  0  0  0
 13 43  1  0  0  0  0
 14 15  2  0  0  0  0
 14 16  1  0  0  0  0
 16 17  1  0  0  0  0
 16 44  1  0  0  0  0
 17 22  2  0  0  0  0
 17 18  1  0  0  0  0
 18 19  2  0  0  0  0
 18 45  1  0  0  0  0
 19 20  1  0  0  0  0
 19 46  1  0  0  0  0
 20 21  2  0  0  0  0
 20 23  1  0  0  0  0
 21 22  1  0  0  0  0
 21 47  1  0  0  0  0
 22 48  1  0  0  0  0
 23 24  2  0  0  0  0
 23 25  2  0  0  0  0
 23 26  1  0  0  0  0
 26 27  1  0  0  0  0
 26 49  1  0  0  0  0
 27 28  1  0  0  0  0
 27 50  1  0  0  0  0
 27 51  1  0  0  0  0
 28 29  1  0  0  0  0
 28 52  1  0  0  0  0
 28 53  1  0  0  0  0
 29 30  2  0  0  0  0
 29 57  1  0  0  0  0
 31 32  1  0  0  0  0
 32 54  1  0  0  0  0
 32 55  1  0  0  0  0
 32 56  1  0  0  0  0
M  END
$$$$
ZINC30636701
 OpenBabel01252620473D

 49 52  0  0  0  0  0  0  0  0999 V2000
   -1.7878   -5.6816    2.7183 C   0  0  0  0  0  0  0  0  0  0  0  0
   -2.0063   -4.7862    3.7504 C   0  0  0  0  0  0  0  0  0  0  0  0
   -2.1345   -3.4326    3.4918 C   0  0  0  0  0  0  0  0  0  0  0  0
   -2.0427   -2.9721    2.1859 C   0  0  0  0  0  0  0  0  0  0  0  0
   -1.8202   -3.8839    1.1349 C   0  0  0  0  0  0  0  0  0  0  0  0
   -1.6934   -5.2380    1.4107 C   0  0  0  0  0  0  0  0  0  0  0  0
   -1.7273   -3.3618   -0.2459 C   0  0  0  0  0  0  0  0  0  0  0  0
   -1.5356   -4.1204   -1.1759 O   0  5  0  0  0  0  0  0  0  0  0  0
   -1.8564   -2.0386   -0.4645 N   0  0  0  0  0  0  0  0  0  0  0  0
   -2.0768   -1.1356    0.5765 N   0  0  0  0  0  0  0  0  0  0  0  0
   -2.1676   -1.5348    1.8601 C   0  0  0  0  0  0  0  0  0  0  0  0
   -2.3552   -0.7207    2.7428 O   0  0  0  0  0  0  0  0  0  0  0  0
   -2.2074    0.2899    0.2648 C   0  0  0  0  0  0  0  0  0  0  0  0
   -0.8494    0.9413    0.3138 C   0  0  0  0  0  0  0  0  0  0  0  0
    0.1311    0.2800    0.5826 O   0  0  0  0  0  0  0  0  0  0  0  0
   -0.7244    2.2588    0.0589 N   0  0  0  0  0  0  0  0  0  0  0  0
    0.5958    2.8921    0.1065 C   0  0  0  0  0  0  0  0  0  0  0  0
    0.4594    4.3808   -0.2190 C   0  0  0  0  0  0  0  0  0  0  0  0
    1.7796    5.0141   -0.1714 N   0  0  0  0  0  0  0  0  0  0  0  0
    2.5131    5.0623   -1.2707 C   0  0  0  0  0  0  0  0  0  0  0  0
    2.1202    4.5934   -2.3226 O   0  0  0  0  0  0  0  0  0  0  0  0
    3.8342    5.7139   -1.1564 C   0  0  0  0  0  0  0  0  0  0  0  0
    4.7876    5.9074   -2.1016 C   0  0  0  0  0  0  0  0  0  0  0  0
    5.9643    6.7339   -1.7998 C   0  0  0  0  0  0  0  0  0  0  0  0
    6.0201    7.4700   -0.6106 C   0  0  0  0  0  0  0  0  0  0  0  0
    7.1289    8.2388   -0.3315 C   0  0  0  0  0  0  0  0  0  0  0  0
    8.1834    8.2930   -1.2308 C   0  0  0  0  0  0  0  0  0  0  0  0
    8.1323    7.5706   -2.4136 C   0  0  0  0  0  0  0  0  0  0  0  0
    7.0322    6.7932   -2.7028 C   0  0  0  0  0  0  0  0  0  0  0  0
    9.2655    9.0526   -0.9530 F   0  0  0  0  0  0  0  0  0  0  0  0
    3.8303    6.1778    0.5700 S   0  0  0  0  0  0  0  0  0  0  0  0
    2.2168    5.5394    0.9911 C   0  0  0  0  0  0  0  0  0  0  0  0
    1.6498    5.5697    2.0667 O   0  0  0  0  0  0  0  0  0  0  0  0
   -1.6897   -6.7351    2.9350 H   0  0  0  0  0  0  0  0  0  0  0  0
   -2.0777   -5.1466    4.7660 H   0  0  0  0  0  0  0  0  0  0  0  0
   -2.3053   -2.7387    4.3016 H   0  0  0  0  0  0  0  0  0  0  0  0
   -1.5231   -5.9418    0.6094 H   0  0  0  0  0  0  0  0  0  0  0  0
   -2.6343    0.4074   -0.7421 H   0  0  0  0  0  0  0  0  0  0  0  0
   -2.8698    0.7672    1.0019 H   0  0  0  0  0  0  0  0  0  0  0  0
   -1.6137    2.8586   -0.1849 H   0  0  0  0  0  0  0  0  0  0  0  0
    1.0227    2.7746    1.1134 H   0  0  0  0  0  0  0  0  0  0  0  0
    1.2582    2.4148   -0.6306 H   0  0  0  0  0  0  0  0  0  0  0  0
    0.0325    4.4983   -1.2259 H   0  0  0  0  0  0  0  0  0  0  0  0
   -0.2030    4.8581    0.5181 H   0  0  0  0  0  0  0  0  0  0  0  0
    4.6798    5.4455   -3.0941 H   0  0  0  0  0  0  0  0  0  0  0  0
    5.1979    7.4320    0.0887 H   0  0  0  0  0  0  0  0  0  0  0  0
    7.1753    8.8038    0.5877 H   0  0  0  0  0  0  0  0  0  0  0  0
    8.9569    7.6174   -3.1094 H   0  0  0  0  0  0  0  0  0  0  0  0
    6.9940    6.2307   -3.6239 H   0  0  0  0  0  0  0  0  0  0  0  0
  1  6  2  0  0  0  0
  1  2  1  0  0  0  0
  1 34  1  0  0  0  0
  2  3  2  0  0  0  0
  2 35  1  0  0  0  0
  3  4  1  0  0  0  0
  3 36  1  0  0  0  0
  4 11  1  0  0  0  0
  4  5  2  0  0  0  0
  5  6  1  0  0  0  0
  5  7  1  0  0  0  0
  6 37  1  0  0  0  0
  7  8  1  0  0  0  0
  7  9  2  0  0  0  0
  9 10  1  0  0  0  0
 10 11  1  0  0  0  0
 10 13  1  0  0  0  0
 11 12  2  0  0  0  0
 13 14  1  0  0  0  0
 13 38  1  0  0  0  0
 13 39  1  0  0  0  0
 14 15  2  0  0  0  0
 14 16  1  0  0  0  0
 16 17  1  0  0  0  0
 16 40  1  0  0  0  0
 17 18  1  0  0  0  0
 17 41  1  0  0  0  0
 17 42  1  0  0  0  0
 18 19  1  0  0  0  0
 18 43  1  0  0  0  0
 18 44  1  0  0  0  0
 19 32  1  0  0  0  0
 19 20  1  0  0  0  0
 20 21  2  0  0  0  0
 20 22  1  0  0  0  0
 22 23  2  0  0  0  0
 22 31  1  0  0  0  0
 23 24  1  0  0  0  0
 23 45  1  0  0  0  0
 24 29  2  0  0  0  0
 24 25  1  0  0  0  0
 25 26  2  0  0  0  0
 25 46  1  0  0  0  0
 26 27  1  0  0  0  0
 26 47  1  0  0  0  0
 27 28  2  0  0  0  0
 27 30  1  0  0  0  0
 28 29  1  0  0  0  0
 28 48  1  0  0  0  0
 29 49  1  0  0  0  0
 31 32  1  0  0  0  0
 32 33  2  0  0  0  0
M  CHG  1   8  -1
M  END
$$$$
ZINC16936879
 OpenBabel01252620473D

 44 45  0  0  1  0  0  0  0  0999 V2000
    2.8407   -2.4838   -3.0123 C   0  0  0  0  0  0  0  0  0  0  0  0
    3.6384   -1.1960   -2.7972 C   0  0  2  0  0  0  0  0  0  0  0  0
    2.9539   -0.3778   -2.5732 H   0  0  0  0  0  0  0  0  0  0  0  0
    4.4163   -0.8724   -4.0466 C   0  0  0  0  0  0  0  0  0  0  0  0
    3.8268   -0.5935   -5.0767 O   0  0  0  0  0  0  0  0  0  0  0  0
    5.6353   -0.8893   -4.0273 O   0  0  0  0  0  1  0  0  0  0  0  0
    4.5430   -1.3729   -1.7052 O   0  0  0  0  0  0  0  0  0  0  0  0
    4.0244   -1.2768   -0.4526 C   0  0  0  0  0  0  0  0  0  0  0  0
    2.6653   -1.0465   -0.2800 C   0  0  0  0  0  0  0  0  0  0  0  0
    2.1302   -0.9471    0.9914 C   0  0  0  0  0  0  0  0  0  0  0  0
    2.9420   -1.0762    2.0988 C   0  0  0  0  0  0  0  0  0  0  0  0
    4.3122   -1.3087    1.9365 C   0  0  0  0  0  0  0  0  0  0  0  0
    4.8496   -1.4140    0.6494 C   0  0  0  0  0  0  0  0  0  0  0  0
    5.1822   -1.4472    3.1135 C   0  0  0  0  0  0  0  0  0  0  0  0
    6.5272   -1.5213    2.9576 C   0  0  0  0  0  0  0  0  0  0  0  0
    7.5785   -1.7991    3.9595 C   0  0  0  0  0  0  0  0  0  0  0  0
    7.3096   -2.0074    5.1279 O   0  0  0  0  0  0  0  0  0  0  0  0
    8.8259   -1.8101    3.5205 N   0  0  0  0  0  0  0  0  0  0  0  0
    9.1192   -1.5793    2.2248 C   0  0  0  0  0  0  0  0  0  0  0  0
   10.6564   -1.5518    1.4716 S   0  0  0  0  0  0  0  0  0  0  0  0
    7.5164   -1.3175    1.4826 S   0  0  0  0  0  0  0  0  0  0  0  0
    9.9141   -2.0789    4.4637 C   0  0  1  0  0  0  0  0  0  0  0  0
    9.5005   -2.2413    5.4590 H   0  0  0  0  0  0  0  0  0  0  0  0
   10.6779   -3.3278    4.0189 C   0  0  0  0  0  0  0  0  0  0  0  0
   11.8144   -3.6084    5.0039 C   0  0  0  0  0  0  0  0  0  0  0  0
    9.7244   -4.5239    3.9860 C   0  0  0  0  0  0  0  0  0  0  0  0
   10.8532   -0.9007    4.4961 C   0  0  0  0  0  0  0  0  0  0  0  0
   10.6338    0.0732    3.7962 O   0  0  0  0  0  0  0  0  0  0  0  0
   11.8324   -0.9214    5.2222 O   0  0  0  0  0  1  0  0  0  0  0  0
    2.2780   -2.7179   -2.1086 H   0  0  0  0  0  0  0  0  0  0  0  0
    2.1507   -2.3489   -3.8453 H   0  0  0  0  0  0  0  0  0  0  0  0
    3.5252   -3.3020   -3.2363 H   0  0  0  0  0  0  0  0  0  0  0  0
    2.0237   -0.9444   -1.1428 H   0  0  0  0  0  0  0  0  0  0  0  0
    1.0727   -0.7672    1.1175 H   0  0  0  0  0  0  0  0  0  0  0  0
    2.5207   -0.9976    3.0901 H   0  0  0  0  0  0  0  0  0  0  0  0
    5.9055   -1.5975    0.5163 H   0  0  0  0  0  0  0  0  0  0  0  0
    4.7500   -1.4900    4.1024 H   0  0  0  0  0  0  0  0  0  0  0  0
   11.0915   -3.1654    3.0235 H   0  0  0  0  0  0  0  0  0  0  0  0
   11.4008   -3.7708    5.9992 H   0  0  0  0  0  0  0  0  0  0  0  0
   12.3585   -4.4981    4.6870 H   0  0  0  0  0  0  0  0  0  0  0  0
   12.4937   -2.7563    5.0273 H   0  0  0  0  0  0  0  0  0  0  0  0
    8.9147   -4.3240    3.2842 H   0  0  0  0  0  0  0  0  0  0  0  0
   10.2685   -5.4136    3.6690 H   0  0  0  0  0  0  0  0  0  0  0  0
    9.3108   -4.6863    4.9813 H   0  0  0  0  0  0  0  0  0  0  0  0
  1  2  1  0  0  0  0
  1 30  1  0  0  0  0
  1 31  1  0  0  0  0
  1 32  1  0  0  0  0
  2  3  1  1  0  0  0
  2  4  1  0  0  0  0
  2  7  1  0  0  0  0
  4  5  2  0  0  0  0
  4  6  1  0  0  0  0
  7  8  1  0  0  0  0
  8 13  2  0  0  0  0
  8  9  1  0  0  0  0
  9 10  2  0  0  0  0
  9 33  1  0  0  0  0
 10 11  1  0  0  0  0
 10 34  1  0  0  0  0
 11 12  2  0  0  0  0
 11 35  1  0  0  0  0
 12 13  1  0  0  0  0
 12 14  1  0  0  0  0
 13 36  1  0  0  0  0
 14 15  2  0  0  0  0
 14 37  1  0  0  0  0
 15 21  1  0  0  0  0
 15 16  1  0  0  0  0
 16 17  2  0  0  0  0
 16 18  1  0  0  0  0
 18 19  1  0  0  0  0
 18 22  1  0  0  0  0
 19 20  2  0  0  0  0
 19 21  1  0  0  0  0
 22 23  1  1  0  0  0
 22 24  1  0  0  0  0
 22 27  1  0  0  0  0
 24 25  1  0  0  0  0
 24 26  1  0  0  0  0
 24 38  1  0  0  0  0
 25 39  1  0  0  0  0
 25 40  1  0  0  0  0
 25 41  1  0  0  0  0
 26 42  1  0  0  0  0
 26 43  1  0  0  0  0
 26 44  1  0  0  0  0
 27 28  2  0  0  0  0
 27 29  1  0  0  0  0
M  END
$$$$
ZINC61937408
 OpenBabel01252620473D

 46 47  0  0  1  0  0  0  0  0999 V2000
    3.5510   -4.2902   -1.2121 C   0  0  0  0  0  0  0  0  0  0  0  0
    2.6673   -3.1739   -1.7722 C   0  0  1  0  0  0  0  0  0  0  0  0
    2.2389   -3.4920   -2.7226 H   0  0  0  0  0  0  0  0  0  0  0  0
    1.5282   -2.8657   -0.7702 C   0  0  0  0  0  0  0  0  0  0  0  0
    0.5851   -1.9439   -1.3758 N   0  0  0  0  0  0  0  0  0  0  0  0
    0.7313   -0.4797   -1.2733 C   0  0  0  0  0  0  0  0  0  0  0  0
    2.1965   -0.0580   -1.4568 C   0  0  0  0  0  0  0  0  0  0  0  0
    2.8310   -0.8897   -2.5531 C   0  0  0  0  0  0  0  0  0  0  0  0
    3.4281   -2.0390   -1.9673 O   0  0  0  0  0  0  0  0  0  0  0  0
   -0.4638   -2.4446   -2.0581 C   0  0  0  0  0  0  0  0  0  0  0  0
   -1.3186   -1.6974   -2.4932 O   0  0  0  0  0  0  0  0  0  0  0  0
   -0.5652   -3.7736   -2.2581 N   0  0  0  0  0  0  0  0  0  0  0  0
   -1.6456   -4.3088   -3.0904 C   0  0  2  0  0  0  0  0  0  0  0  0
   -2.9960   -3.9222   -2.4838 C   0  0  0  0  0  0  0  0  0  0  0  0
   -3.1053   -4.5012   -1.0719 C   0  0  0  0  0  0  0  0  0  0  0  0
   -2.9926   -6.0257   -1.1356 C   0  0  1  0  0  0  0  0  0  0  0  0
   -1.6422   -6.4123   -1.7422 C   0  0  0  0  0  0  0  0  0  0  0  0
   -1.5328   -5.8333   -3.1541 C   0  0  0  0  0  0  0  0  0  0  0  0
   -3.1020   -6.6047    0.2764 C   0  0  0  0  0  0  0  0  0  0  0  0
   -1.5378   -3.7385   -4.4811 C   0  0  0  0  0  0  0  0  0  0  0  0
   -0.6417   -2.9574   -4.7520 O   0  0  0  0  0  0  0  0  0  0  0  0
   -2.3468   -4.0582   -5.3355 O   0  0  0  0  0  1  0  0  0  0  0  0
    3.9794   -3.9722   -0.2616 H   0  0  0  0  0  0  0  0  0  0  0  0
    2.9502   -5.1866   -1.0580 H   0  0  0  0  0  0  0  0  0  0  0  0
    4.3530   -4.5073   -1.9176 H   0  0  0  0  0  0  0  0  0  0  0  0
    1.0147   -3.7909   -0.5084 H   0  0  0  0  0  0  0  0  0  0  0  0
    1.9480   -2.4165    0.1299 H   0  0  0  0  0  0  0  0  0  0  0  0
    0.1231   -0.0045   -2.0430 H   0  0  0  0  0  0  0  0  0  0  0  0
    0.3851   -0.1532   -0.2926 H   0  0  0  0  0  0  0  0  0  0  0  0
    2.2393    0.9963   -1.7301 H   0  0  0  0  0  0  0  0  0  0  0  0
    2.7384   -0.2130   -0.5238 H   0  0  0  0  0  0  0  0  0  0  0  0
    2.0667   -1.1983   -3.2664 H   0  0  0  0  0  0  0  0  0  0  0  0
    3.5937   -0.3014   -3.0632 H   0  0  0  0  0  0  0  0  0  0  0  0
    0.0771   -4.3757   -1.8510 H   0  0  0  0  0  0  0  0  0  0  0  0
   -3.0763   -2.8361   -2.4384 H   0  0  0  0  0  0  0  0  0  0  0  0
   -3.7997   -4.3204   -3.1031 H   0  0  0  0  0  0  0  0  0  0  0  0
   -2.3015   -4.1030   -0.4526 H   0  0  0  0  0  0  0  0  0  0  0  0
   -4.0674   -4.2258   -0.6397 H   0  0  0  0  0  0  0  0  0  0  0  0
   -3.7964   -6.4239   -1.7549 H   0  0  0  0  0  0  0  0  0  0  0  0
   -0.8384   -6.0141   -1.1229 H   0  0  0  0  0  0  0  0  0  0  0  0
   -1.5619   -7.4984   -1.7876 H   0  0  0  0  0  0  0  0  0  0  0  0
   -2.3366   -6.2315   -3.7734 H   0  0  0  0  0  0  0  0  0  0  0  0
   -0.5708   -6.1087   -3.5863 H   0  0  0  0  0  0  0  0  0  0  0  0
   -4.0640   -6.3292    0.7085 H   0  0  0  0  0  0  0  0  0  0  0  0
   -3.0216   -7.6908    0.2309 H   0  0  0  0  0  0  0  0  0  0  0  0
   -2.2982   -6.2065    0.8956 H   0  0  0  0  0  0  0  0  0  0  0  0
  1  2  1  0  0  0  0
  1 23  1  0  0  0  0
  1 24  1  0  0  0  0
  1 25  1  0  0  0  0
  2  3  1  6  0  0  0
  2  9  1  0  0  0  0
  2  4  1  0  0  0  0
  4  5  1  0  0  0  0
  4 26  1  0  0  0  0
  4 27  1  0  0  0  0
  5  6  1  0  0  0  0
  5 10  1  0  0  0  0
  6  7  1  0  0  0  0
  6 28  1  0  0  0  0
  6 29  1  0  0  0  0
  7  8  1  0  0  0  0
  7 30  1  0  0  0  0
  7 31  1  0  0  0  0
  8  9  1  0  0  0  0
  8 32  1  0  0  0  0
  8 33  1  0  0  0  0
 10 11  2  0  0  0  0
 10 12  1  0  0  0  0
 12 13  1  0  0  0  0
 12 34  1  0  0  0  0
 13 18  1  0  0  0  0
 13 14  1  0  0  0  0
 13 20  1  6  0  0  0
 14 15  1  0  0  0  0
 14 35  1  0  0  0  0
 14 36  1  0  0  0  0
 15 16  1  0  0  0  0
 15 37  1  0  0  0  0
 15 38  1  0  0  0  0
 16 17  1  0  0  0  0
 16 19  1  0  0  0  0
 16 39  1  6  0  0  0
 17 18  1  0  0  0  0
 17 40  1  0  0  0  0
 17 41  1  0  0  0  0
 18 42  1  0  0  0  0
 18 43  1  0  0  0  0
 19 44  1  0  0  0  0
 19 45  1  0  0  0  0
 19 46  1  0  0  0  0
 20 21  2  0  0  0  0
 20 22  1  0  0  0  0
M  END
$$$$
ZINC40046810
 OpenBabel01252620473D

 60 62  0  0  1  0  0  0  0  0999 V2000
    2.5868   -1.7871    0.0893 C   0  0  0  0  0  0  0  0  0  0  0  0
    1.3431   -1.1287    0.6899 C   0  0  0  0  0  0  0  0  0  0  0  0
    0.1484   -2.0745    0.5518 C   0  0  0  0  0  0  0  0  0  0  0  0
   -1.0132   -1.4596    1.1128 O   0  0  0  0  0  0  0  0  0  0  0  0
   -2.1704   -2.1728    1.0710 C   0  0  0  0  0  0  0  0  0  0  0  0
   -2.1860   -3.4387    0.5077 C   0  0  0  0  0  0  0  0  0  0  0  0
   -3.3630   -4.1625    0.4665 C   0  0  0  0  0  0  0  0  0  0  0  0
   -4.5266   -3.6260    0.9859 C   0  0  0  0  0  0  0  0  0  0  0  0
   -4.5181   -2.3634    1.5488 C   0  0  0  0  0  0  0  0  0  0  0  0
   -3.3403   -1.6351    1.5989 C   0  0  0  0  0  0  0  0  0  0  0  0
   -3.3289   -0.3954    2.1578 O   0  0  0  0  0  0  0  0  0  0  0  0
   -4.5470    0.0606    2.7497 C   0  0  0  0  0  0  0  0  0  0  0  0
   -4.3087    1.4088    3.4327 C   0  0  0  0  0  0  0  0  0  0  0  0
   -5.8070   -4.4192    0.9379 C   0  0  1  0  0  0  0  0  0  0  0  0
   -5.6290   -5.3902    0.4758 H   0  0  0  0  0  0  0  0  0  0  0  0
   -6.3585   -4.6007    2.3328 C   0  0  0  0  0  0  0  0  0  0  0  0
   -7.5776   -4.0150    2.3499 C   0  0  0  0  0  0  0  0  0  0  0  0
   -7.8629   -3.4476    1.0169 C   0  0  0  0  0  0  0  0  0  0  0  0
   -8.8804   -2.8563    0.7140 O   0  0  0  0  0  0  0  0  0  0  0  0
   -6.8294   -3.6822    0.1858 N   0  0  0  0  0  0  0  0  0  0  0  0
   -6.7404   -3.2744   -1.2185 C   0  0  0  0  0  0  0  0  0  0  0  0
   -7.3139   -4.3795   -2.1078 C   0  0  0  0  0  0  0  0  0  0  0  0
   -7.2209   -3.9537   -3.5744 C   0  0  0  0  0  0  0  0  0  0  0  0
   -7.7565   -4.9859   -4.4049 O   0  0  0  0  0  0  0  0  0  0  0  0
   -8.4053   -3.9584    3.4197 O   0  5  0  0  0  0  0  0  0  0  0  0
   -5.6987   -5.2818    3.4531 C   0  0  0  0  0  0  0  0  0  0  0  0
   -6.2079   -5.2672    4.5599 O   0  0  0  0  0  0  0  0  0  0  0  0
   -4.4273   -5.9796    3.2403 C   0  0  0  0  0  0  0  0  0  0  0  0
   -3.6412   -6.5506    4.2178 C   0  0  0  0  0  0  0  0  0  0  0  0
   -2.5299   -7.1027    3.5646 C   0  0  0  0  0  0  0  0  0  0  0  0
   -2.6778   -6.8527    2.2437 C   0  0  0  0  0  0  0  0  0  0  0  0
   -3.8212   -6.1823    2.0521 O   0  0  0  0  0  0  0  0  0  0  0  0
   -1.7143   -7.2667    1.1614 C   0  0  0  0  0  0  0  0  0  0  0  0
    3.4379   -1.1133    0.1876 H   0  0  0  0  0  0  0  0  0  0  0  0
    2.7966   -2.7171    0.6177 H   0  0  0  0  0  0  0  0  0  0  0  0
    2.4118   -1.9999   -0.9653 H   0  0  0  0  0  0  0  0  0  0  0  0
    1.5180   -0.9159    1.7445 H   0  0  0  0  0  0  0  0  0  0  0  0
    1.1332   -0.1987    0.1615 H   0  0  0  0  0  0  0  0  0  0  0  0
   -0.0266   -2.2873   -0.5028 H   0  0  0  0  0  0  0  0  0  0  0  0
    0.3582   -3.0045    1.0802 H   0  0  0  0  0  0  0  0  0  0  0  0
   -1.2786   -3.8598    0.1006 H   0  0  0  0  0  0  0  0  0  0  0  0
   -3.3738   -5.1491    0.0272 H   0  0  0  0  0  0  0  0  0  0  0  0
   -5.4284   -1.9465    1.9535 H   0  0  0  0  0  0  0  0  0  0  0  0
   -5.3065    0.1744    1.9762 H   0  0  0  0  0  0  0  0  0  0  0  0
   -4.8864   -0.6658    3.4881 H   0  0  0  0  0  0  0  0  0  0  0  0
   -3.5492    1.2950    4.2062 H   0  0  0  0  0  0  0  0  0  0  0  0
   -3.9693    2.1352    2.6944 H   0  0  0  0  0  0  0  0  0  0  0  0
   -5.2378    1.7566    3.8842 H   0  0  0  0  0  0  0  0  0  0  0  0
   -7.3093   -2.3566   -1.3671 H   0  0  0  0  0  0  0  0  0  0  0  0
   -5.6968   -3.1016   -1.4812 H   0  0  0  0  0  0  0  0  0  0  0  0
   -6.7450   -5.2973   -1.9592 H   0  0  0  0  0  0  0  0  0  0  0  0
   -8.3575   -4.5524   -1.8451 H   0  0  0  0  0  0  0  0  0  0  0  0
   -7.7898   -3.0359   -3.7230 H   0  0  0  0  0  0  0  0  0  0  0  0
   -6.1773   -3.7808   -3.8371 H   0  0  0  0  0  0  0  0  0  0  0  0
   -7.7300   -4.7836   -5.3502 H   0  0  0  0  0  0  0  0  0  0  0  0
   -3.8414   -6.5687    5.2790 H   0  0  0  0  0  0  0  0  0  0  0  0
   -1.7091   -7.6288    4.0295 H   0  0  0  0  0  0  0  0  0  0  0  0
   -2.0407   -8.2112    0.7262 H   0  0  0  0  0  0  0  0  0  0  0  0
   -1.6864   -6.5002    0.3870 H   0  0  0  0  0  0  0  0  0  0  0  0
   -0.7187   -7.3883    1.5883 H   0  0  0  0  0  0  0  0  0  0  0  0
  1  2  1  0  0  0  0
  1 34  1  0  0  0  0
  1 35  1  0  0  0  0
  1 36  1  0  0  0  0
  2  3  1  0  0  0  0
  2 37  1  0  0  0  0
  2 38  1  0  0  0  0
  3  4  1  0  0  0  0
  3 39  1  0  0  0  0
  3 40  1  0  0  0  0
  4  5  1  0  0  0  0
  5 10  2  0  0  0  0
  5  6  1  0  0  0  0
  6  7  2  0  0  0  0
  6 41  1  0  0  0  0
  7  8  1  0  0  0  0
  7 42  1  0  0  0  0
  8  9  2  0  0  0  0
  8 14  1  0  0  0  0
  9 10  1  0  0  0  0
  9 43  1  0  0  0  0
 10 11  1  0  0  0  0
 11 12  1  0  0  0  0
 12 13  1  0  0  0  0
 12 44  1  0  0  0  0
 12 45  1  0  0  0  0
 13 46  1  0  0  0  0
 13 47  1  0  0  0  0
 13 48  1  0  0  0  0
 14 15  1  6  0  0  0
 14 20  1  0  0  0  0
 14 16  1  0  0  0  0
 16 17  2  0  0  0  0
 16 26  1  0  0  0  0
 17 18  1  0  0  0  0
 17 25  1  0  0  0  0
 18 19  2  0  0  0  0
 18 20  1  0  0  0  0
 20 21  1  0  0  0  0
 21 22  1  0  0  0  0
 21 49  1  0  0  0  0
 21 50  1  0  0  0  0
 22 23  1  0  0  0  0
 22 51  1  0  0  0  0
 22 52  1  0  0  0  0
 23 24  1  0  0  0  0
 23 53  1  0  0  0  0
 23 54  1  0  0  0  0
 24 55  1  0  0  0  0
 26 27  2  0  0  0  0
 26 28  1  0  0  0  0
 28 32  1  0  0  0  0
 28 29  2  0  0  0  0
 29 30  1  0  0  0  0
 29 56  1  0  0  0  0
 30 31  2  0  0  0  0
 30 57  1  0  0  0  0
 31 32  1  0  0  0  0
 31 33  1  0  0  0  0
 33 58  1  0  0  0  0
 33 59  1  0  0  0  0
 33 60  1  0  0  0  0
M  CHG  1  25  -1
M  END
$$$$
ZINC01188198
 OpenBabel01252620473D

 32 33  0  0  0  0  0  0  0  0999 V2000
   -2.7490    3.3209   -0.8711 C   0  0  0  0  0  0  0  0  0  0  0  0
   -1.3793    2.7340   -0.6466 C   0  0  0  0  0  0  0  0  0  0  0  0
   -1.1785    1.3736   -0.8071 C   0  0  0  0  0  0  0  0  0  0  0  0
    0.0701    0.8280   -0.5985 C   0  0  0  0  0  0  0  0  0  0  0  0
    1.1388    1.6550   -0.2343 C   0  0  0  0  0  0  0  0  0  0  0  0
    0.9286    3.0295   -0.0793 C   0  0  0  0  0  0  0  0  0  0  0  0
   -0.3278    3.5585   -0.2862 C   0  0  0  0  0  0  0  0  0  0  0  0
    2.0721    3.9292    0.3131 C   0  0  0  0  0  0  0  0  0  0  0  0
    2.4749    1.0824   -0.0153 C   0  0  0  0  0  0  0  0  0  0  0  0
    2.6088   -0.0911    0.6511 C   0  0  0  0  0  0  0  0  0  0  0  0
    1.5917   -0.8888    1.3690 C   0  0  0  0  0  0  0  0  0  0  0  0
    0.4299   -0.5333    1.4355 O   0  0  0  0  0  0  0  0  0  0  0  0
    2.0097   -2.0083    1.9355 N   0  0  0  0  0  0  0  0  0  0  0  0
    3.2985   -2.3980    1.8600 C   0  0  0  0  0  0  0  0  0  0  0  0
    4.0255   -3.7995    2.5218 S   0  0  0  0  0  0  0  0  0  0  0  0
    4.0620   -1.1029    0.8967 S   0  0  0  0  0  0  0  0  0  0  0  0
    1.0507   -2.8441    2.6621 C   0  0  0  0  0  0  0  0  0  0  0  0
    0.4361   -3.8425    1.7153 C   0  0  0  0  0  0  0  0  0  0  0  0
    0.7654   -3.8547    0.5529 O   0  0  0  0  0  0  0  0  0  0  0  0
   -2.8539    3.6088   -1.9171 H   0  0  0  0  0  0  0  0  0  0  0  0
   -3.5076    2.5795   -0.6204 H   0  0  0  0  0  0  0  0  0  0  0  0
   -2.8761    4.1991   -0.2381 H   0  0  0  0  0  0  0  0  0  0  0  0
   -2.0032    0.7376   -1.0930 H   0  0  0  0  0  0  0  0  0  0  0  0
    0.2241   -0.2340   -0.7201 H   0  0  0  0  0  0  0  0  0  0  0  0
   -0.4918    4.6193   -0.1669 H   0  0  0  0  0  0  0  0  0  0  0  0
    2.5731    4.2924   -0.5842 H   0  0  0  0  0  0  0  0  0  0  0  0
    1.6893    4.7756    0.8833 H   0  0  0  0  0  0  0  0  0  0  0  0
    2.7810    3.3703    0.9240 H   0  0  0  0  0  0  0  0  0  0  0  0
    3.3498    1.5962   -0.3852 H   0  0  0  0  0  0  0  0  0  0  0  0
    1.5648   -3.3731    3.4646 H   0  0  0  0  0  0  0  0  0  0  0  0
    0.2677   -2.2147    3.0851 H   0  0  0  0  0  0  0  0  0  0  0  0
   -0.4771   -4.7183    2.1634 O   0  0  0  0  0  1  0  0  0  0  0  0
  1  2  1  0  0  0  0
  1 20  1  0  0  0  0
  1 21  1  0  0  0  0
  1 22  1  0  0  0  0
  2  7  2  0  0  0  0
  2  3  1  0  0  0  0
  3  4  2  0  0  0  0
  3 23  1  0  0  0  0
  4  5  1  0  0  0  0
  4 24  1  0  0  0  0
  5  6  2  0  0  0  0
  5  9  1  0  0  0  0
  6  7  1  0  0  0  0
  6  8  1  0  0  0  0
  7 25  1  0  0  0  0
  8 26  1  0  0  0  0
  8 27  1  0  0  0  0
  8 28  1  0  0  0  0
  9 10  2  0  0  0  0
  9 29  1  0  0  0  0
 10 16  1  0  0  0  0
 10 11  1  0  0  0  0
 11 12  2  0  0  0  0
 11 13  1  0  0  0  0
 13 14  1  0  0  0  0
 13 17  1  0  0  0  0
 14 15  2  0  0  0  0
 14 16  1  0  0  0  0
 17 18  1  0  0  0  0
 17 30  1  0  0  0  0
 17 31  1  0  0  0  0
 18 19  2  0  0  0  0
 18 32  1  0  0  0  0
M  END
$$$$
ZINC32973726
 OpenBabel01252620473D

 52 54  0  0  0  0  0  0  0  0999 V2000
    0.1422    2.6599   -0.3211 C   0  0  0  0  0  0  0  0  0  0  0  0
    0.0836    1.1889    0.0009 C   0  0  0  0  0  0  0  0  0  0  0  0
    0.0232    0.1472   -0.9306 C   0  0  0  0  0  0  0  0  0  0  0  0
   -0.0158   -1.0203   -0.2477 C   0  0  0  0  0  0  0  0  0  0  0  0
    0.0186   -0.7279    1.0693 N   0  0  0  0  0  0  0  0  0  0  0  0
    0.0862    0.6653    1.1999 N   0  0  0  0  0  0  0  0  0  0  0  0
   -0.0049   -1.6964    2.1681 C   0  0  0  0  0  0  0  0  0  0  0  0
   -0.0858   -2.4000   -0.8499 C   0  0  0  0  0  0  0  0  0  0  0  0
    0.0041    0.2985   -2.4299 C   0  0  0  0  0  0  0  0  0  0  0  0
    1.4386    0.2875   -2.9619 C   0  0  0  0  0  0  0  0  0  0  0  0
    1.4200    0.4345   -4.4194 N   0  0  0  0  0  2  0  0  0  0  0  0
    2.5914    0.4521   -5.1181 C   0  0  0  0  0  0  0  0  0  0  0  0
    3.7809    0.3326   -4.4593 N   0  0  0  0  0  0  0  0  0  0  0  0
    4.9854    0.4686   -5.1593 C   0  0  0  0  0  0  0  0  0  0  0  0
    5.1063    1.4293   -6.1550 C   0  0  0  0  0  0  0  0  0  0  0  0
    6.2953    1.5623   -6.8448 C   0  0  0  0  0  0  0  0  0  0  0  0
    7.3671    0.7387   -6.5448 C   0  0  0  0  0  0  0  0  0  0  0  0
    7.2490   -0.2210   -5.5522 C   0  0  0  0  0  0  0  0  0  0  0  0
    6.0625   -0.3529   -4.8554 C   0  0  0  0  0  0  0  0  0  0  0  0
    8.5942   -1.2528   -5.1785 Cl  0  0  0  0  0  0  0  0  0  0  0  0
    8.5293    0.8705   -7.2209 F   0  0  0  0  0  0  0  0  0  0  0  0
    2.5746    0.5850   -6.4358 N   0  0  0  0  0  0  0  0  0  0  0  0
    1.4074    0.7022   -7.0823 C   0  0  0  0  0  0  0  0  0  0  0  0
    0.3613    0.6866   -6.4583 O   0  0  0  0  0  0  0  0  0  0  0  0
    1.3886    0.8509   -8.5558 C   0  0  0  0  0  0  0  0  0  0  0  0
    2.5849    0.8634   -9.2736 C   0  0  0  0  0  0  0  0  0  0  0  0
    2.5624    1.0022  -10.6460 C   0  0  0  0  0  0  0  0  0  0  0  0
    1.3566    1.1289  -11.3122 C   0  0  0  0  0  0  0  0  0  0  0  0
    0.1646    1.1174  -10.6062 C   0  0  0  0  0  0  0  0  0  0  0  0
    0.1750    0.9731   -9.2314 C   0  0  0  0  0  0  0  0  0  0  0  0
   -1.0095    1.2420  -11.2627 F   0  0  0  0  0  0  0  0  0  0  0  0
    1.1827    2.9689   -0.4205 H   0  0  0  0  0  0  0  0  0  0  0  0
   -0.3837    2.8482   -1.2571 H   0  0  0  0  0  0  0  0  0  0  0  0
   -0.3301    3.2266    0.4813 H   0  0  0  0  0  0  0  0  0  0  0  0
    1.0158   -1.9809    2.4237 H   0  0  0  0  0  0  0  0  0  0  0  0
   -0.4855   -1.2479    3.0376 H   0  0  0  0  0  0  0  0  0  0  0  0
   -0.5626   -2.5811    1.8608 H   0  0  0  0  0  0  0  0  0  0  0  0
    0.9239   -2.7771   -1.0124 H   0  0  0  0  0  0  0  0  0  0  0  0
   -0.6176   -3.0664   -0.1707 H   0  0  0  0  0  0  0  0  0  0  0  0
   -0.6143   -2.3544   -1.8021 H   0  0  0  0  0  0  0  0  0  0  0  0
   -0.5535   -0.5276   -2.8713 H   0  0  0  0  0  0  0  0  0  0  0  0
   -0.4741    1.2417   -2.6938 H   0  0  0  0  0  0  0  0  0  0  0  0
    1.9962    1.1135   -2.5205 H   0  0  0  0  0  0  0  0  0  0  0  0
    1.9168   -0.6558   -2.6980 H   0  0  0  0  0  0  0  0  0  0  0  0
    4.2707    2.0720   -6.3899 H   0  0  0  0  0  0  0  0  0  0  0  0
    6.3891    2.3092   -7.6193 H   0  0  0  0  0  0  0  0  0  0  0  0
    5.9719   -1.0977   -4.0785 H   0  0  0  0  0  0  0  0  0  0  0  0
    3.7915    0.1535   -3.5061 H   0  0  0  0  0  0  0  0  0  0  0  0
    3.5274    0.7650   -8.7554 H   0  0  0  0  0  0  0  0  0  0  0  0
    3.4884    1.0122  -11.2017 H   0  0  0  0  0  0  0  0  0  0  0  0
    1.3445    1.2376  -12.3866 H   0  0  0  0  0  0  0  0  0  0  0  0
   -0.7545    0.9596   -8.6815 H   0  0  0  0  0  0  0  0  0  0  0  0
  1  2  1  0  0  0  0
  1 32  1  0  0  0  0
  1 33  1  0  0  0  0
  1 34  1  0  0  0  0
  2  6  2  0  0  0  0
  2  3  1  0  0  0  0
  3  4  2  0  0  0  0
  3  9  1  0  0  0  0
  4  5  1  0  0  0  0
  4  8  1  0  0  0  0
  5  6  1  0  0  0  0
  5  7  1  0  0  0  0
  7 35  1  0  0  0  0
  7 36  1  0  0  0  0
  7 37  1  0  0  0  0
  8 38  1  0  0  0  0
  8 39  1  0  0  0  0
  8 40  1  0  0  0  0
  9 10  1  0  0  0  0
  9 41  1  0  0  0  0
  9 42  1  0  0  0  0
 10 43  1  0  0  0  0
 10 44  1  0  0  0  0
 10 11  1  0  0  0  0
 11 12  1  0  0  0  0
 12 13  1  0  0  0  0
 12 22  2  0  0  0  0
 13 14  1  0  0  0  0
 13 48  1  0  0  0  0
 14 19  2  0  0  0  0
 14 15  1  0  0  0  0
 15 16  2  0  0  0  0
 15 45  1  0  0  0  0
 16 17  1  0  0  0  0
 16 46  1  0  0  0  0
 17 18  2  0  0  0  0
 17 21  1  0  0  0  0
 18 19  1  0  0  0  0
 18 20  1  0  0  0  0
 19 47  1  0  0  0  0
 22 23  1  0  0  0  0
 23 24  2  0  0  0  0
 23 25  1  0  0  0  0
 25 30  2  0  0  0  0
 25 26  1  0  0  0  0
 26 27  2  0  0  0  0
 26 49  1  0  0  0  0
 27 28  1  0  0  0  0
 27 50  1  0  0  0  0
 28 29  2  0  0  0  0
 28 51  1  0  0  0  0
 29 30  1  0  0  0  0
 29 31  1  0  0  0  0
 30 52  1  0  0  0  0
M  END
$$$$
ZINC67029788
 OpenBabel01252620473D

 52 53  0  0  1  0  0  0  0  0999 V2000
   -1.4817    1.3530   -1.0911 C   0  0  0  0  0  0  0  0  0  0  0  0
   -1.2483   -0.1514   -0.9388 C   0  0  0  0  0  0  0  0  0  0  0  0
   -0.2359   -0.5716   -1.8556 O   0  0  0  0  0  0  0  0  0  0  0  0
    0.0915   -1.8807   -1.8489 C   0  0  0  0  0  0  0  0  0  0  0  0
   -0.4684   -2.6440   -1.0844 O   0  0  0  0  0  0  0  0  0  0  0  0
    1.0857   -2.3656   -2.7306 C   0  0  0  0  0  0  0  0  0  0  0  0
    1.4565   -3.6641   -2.7185 C   0  0  0  0  0  0  0  0  0  0  0  0
    2.4160   -4.1310   -3.5706 N   0  0  0  0  0  0  0  0  0  0  0  0
    3.0527   -3.3636   -4.4642 C   0  0  0  0  0  0  0  0  0  0  0  0
    3.8936   -3.8702   -5.1811 O   0  0  0  0  0  0  0  0  0  0  0  0
    2.7915   -2.0479   -4.5950 N   0  0  0  0  0  0  0  0  0  0  0  0
    1.7663   -1.4471   -3.7252 C   0  0  2  0  0  0  0  0  0  0  0  0
    0.9960   -1.0097   -4.3604 H   0  0  0  0  0  0  0  0  0  0  0  0
    2.4165   -0.3274   -2.9540 C   0  0  0  0  0  0  0  0  0  0  0  0
    3.6374   -0.5311   -2.3378 C   0  0  0  0  0  0  0  0  0  0  0  0
    4.2347    0.4949   -1.6308 C   0  0  0  0  0  0  0  0  0  0  0  0
    3.6100    1.7275   -1.5395 C   0  0  0  0  0  0  0  0  0  0  0  0
    2.3877    1.9302   -2.1569 C   0  0  0  0  0  0  0  0  0  0  0  0
    1.7946    0.9040   -2.8680 C   0  0  0  0  0  0  0  0  0  0  0  0
    1.7064    3.2708   -2.0581 C   0  0  0  0  0  0  0  0  0  0  0  0
    4.1929    2.7312   -0.8481 F   0  0  0  0  0  0  0  0  0  0  0  0
    2.7690   -5.5513   -3.5029 C   0  0  0  0  0  0  0  0  0  0  0  0
    1.8006   -6.3593   -4.3689 C   0  0  0  0  0  0  0  0  0  0  0  0
    2.1692   -7.8426   -4.2982 C   0  0  0  0  0  0  0  0  0  0  0  0
    1.2007   -8.6506   -5.1642 C   0  0  0  0  0  0  0  0  0  0  0  0
    1.5638  -10.1116   -5.0945 C   0  0  0  0  0  0  0  0  0  0  0  0
    2.5095  -10.4730   -4.4152 O   0  0  0  0  0  0  0  0  0  0  0  0
    0.9119  -10.9322   -5.7175 O   0  0  0  0  0  1  0  0  0  0  0  0
    0.8010   -4.6131   -1.7486 C   0  0  0  0  0  0  0  0  0  0  0  0
   -0.5556    1.8877   -0.8799 H   0  0  0  0  0  0  0  0  0  0  0  0
   -1.8019    1.5696   -2.1103 H   0  0  0  0  0  0  0  0  0  0  0  0
   -2.2539    1.6736   -0.3918 H   0  0  0  0  0  0  0  0  0  0  0  0
   -0.9280   -0.3680    0.0804 H   0  0  0  0  0  0  0  0  0  0  0  0
   -2.1744   -0.6860   -1.1500 H   0  0  0  0  0  0  0  0  0  0  0  0
    3.2650   -1.5103   -5.2490 H   0  0  0  0  0  0  0  0  0  0  0  0
    4.1242   -1.4925   -2.4088 H   0  0  0  0  0  0  0  0  0  0  0  0
    5.1882    0.3355   -1.1492 H   0  0  0  0  0  0  0  0  0  0  0  0
    0.8431    1.0632   -3.3535 H   0  0  0  0  0  0  0  0  0  0  0  0
    2.0243    3.9020   -2.8879 H   0  0  0  0  0  0  0  0  0  0  0  0
    0.6259    3.1332   -2.0995 H   0  0  0  0  0  0  0  0  0  0  0  0
    1.9761    3.7468   -1.1154 H   0  0  0  0  0  0  0  0  0  0  0  0
    3.7863   -5.6906   -3.8686 H   0  0  0  0  0  0  0  0  0  0  0  0
    2.7043   -5.8929   -2.4698 H   0  0  0  0  0  0  0  0  0  0  0  0
    0.7832   -6.2199   -4.0032 H   0  0  0  0  0  0  0  0  0  0  0  0
    1.8653   -6.0177   -5.4020 H   0  0  0  0  0  0  0  0  0  0  0  0
    3.1865   -7.9820   -4.6639 H   0  0  0  0  0  0  0  0  0  0  0  0
    2.1044   -8.1842   -3.2651 H   0  0  0  0  0  0  0  0  0  0  0  0
    0.1834   -8.5112   -4.7985 H   0  0  0  0  0  0  0  0  0  0  0  0
    1.2655   -8.3090   -6.1973 H   0  0  0  0  0  0  0  0  0  0  0  0
   -0.2810   -4.5702   -1.8733 H   0  0  0  0  0  0  0  0  0  0  0  0
    1.1489   -5.6279   -1.9419 H   0  0  0  0  0  0  0  0  0  0  0  0
    1.0609   -4.3278   -0.7293 H   0  0  0  0  0  0  0  0  0  0  0  0
  1  2  1  0  0  0  0
  1 30  1  0  0  0  0
  1 31  1  0  0  0  0
  1 32  1  0  0  0  0
  2  3  1  0  0  0  0
  2 33  1  0  0  0  0
  2 34  1  0  0  0  0
  3  4  1  0  0  0  0
  4  5  2  0  0  0  0
  4  6  1  0  0  0  0
  6 12  1  0  0  0  0
  6  7  2  0  0  0  0
  7  8  1  0  0  0  0
  7 29  1  0  0  0  0
  8  9  1  0  0  0  0
  8 22  1  0  0  0  0
  9 10  2  0  0  0  0
  9 11  1  0  0  0  0
 11 12  1  0  0  0  0
 11 35  1  0  0  0  0
 12 13  1  6  0  0  0
 12 14  1  0  0  0  0
 14 19  2  0  0  0  0
 14 15  1  0  0  0  0
 15 16  2  0  0  0  0
 15 36  1  0  0  0  0
 16 17  1  0  0  0  0
 16 37  1  0  0  0  0
 17 18  2  0  0  0  0
 17 21  1  0  0  0  0
 18 19  1  0  0  0  0
 18 20  1  0  0  0  0
 19 38  1  0  0  0  0
 20 39  1  0  0  0  0
 20 40  1  0  0  0  0
 20 41  1  0  0  0  0
 22 23  1  0  0  0  0
 22 42  1  0  0  0  0
 22 43  1  0  0  0  0
 23 24  1  0  0  0  0
 23 44  1  0  0  0  0
 23 45  1  0  0  0  0
 24 25  1  0  0  0  0
 24 46  1  0  0  0  0
 24 47  1  0  0  0  0
 25 26  1  0  0  0  0
 25 48  1  0  0  0  0
 25 49  1  0  0  0  0
 26 27  2  0  0  0  0
 26 28  1  0  0  0  0
 29 50  1  0  0  0  0
 29 51  1  0  0  0  0
 29 52  1  0  0  0  0
M  END
$$$$
ZINC43218381
 OpenBabel01252620473D

 58 62  0  0  1  0  0  0  0  0999 V2000
   -0.0167    1.3790    0.0096 C   0  0  0  0  0  0  0  0  0  0  0  0
    1.1687    2.0919    0.0021 C   0  0  0  0  0  0  0  0  0  0  0  0
    2.3774    1.4258   -0.0129 C   0  0  0  0  0  0  0  0  0  0  0  0
    2.4022    0.0327   -0.0206 C   0  0  0  0  0  0  0  0  0  0  0  0
    1.2051   -0.6804   -0.0130 C   0  0  0  0  0  0  0  0  0  0  0  0
    0.0021   -0.0041    0.0020 C   0  0  0  0  0  0  0  0  0  0  0  0
    3.6987   -0.6889   -0.0373 C   0  0  0  0  0  0  0  0  0  0  0  0
    4.8958    0.0241   -0.0395 C   0  0  0  0  0  0  0  0  0  0  0  0
    6.0988   -0.6522   -0.0546 C   0  0  0  0  0  0  0  0  0  0  0  0
    6.1176   -2.0352   -0.0680 C   0  0  0  0  0  0  0  0  0  0  0  0
    4.9322   -2.7481   -0.0663 C   0  0  0  0  0  0  0  0  0  0  0  0
    3.7235   -2.0821   -0.0450 C   0  0  0  0  0  0  0  0  0  0  0  0
    7.4343   -2.7680   -0.0849 C   0  0  1  0  0  0  0  0  0  0  0  0
    8.2311   -2.1174   -0.4453 H   0  0  0  0  0  0  0  0  0  0  0  0
    7.7670   -3.3107    1.3014 C   0  0  1  0  0  0  0  0  0  0  0  0
    6.9023   -3.7535    1.7957 H   0  0  0  0  0  0  0  0  0  0  0  0
    8.8458   -4.3648    0.8453 C   0  0  1  0  0  0  0  0  0  0  0  0
    9.5840   -3.7600    0.3187 H   0  0  0  0  0  0  0  0  0  0  0  0
    9.5305   -4.6474    2.0838 C   0  0  0  0  0  0  0  0  0  0  0  0
   10.0192   -5.7002    2.4336 O   0  0  0  0  0  0  0  0  0  0  0  0
    9.5082   -3.4640    2.7793 N   0  0  0  0  0  0  0  0  0  0  0  0
    8.6349   -2.5392    2.2448 C   0  0  0  0  0  0  0  0  0  0  0  0
    8.5803   -1.3511    2.4792 O   0  0  0  0  0  0  0  0  0  0  0  0
   10.3164   -3.2104    3.9747 C   0  0  0  0  0  0  0  0  0  0  0  0
   11.6438   -2.6239    3.5684 C   0  0  0  0  0  0  0  0  0  0  0  0
   11.9167   -1.3137    3.4334 C   0  0  0  0  0  0  0  0  0  0  0  0
   13.2713   -1.2158    3.0405 C   0  0  0  0  0  0  0  0  0  0  0  0
   13.7451   -2.4721    2.9588 C   0  0  0  0  0  0  0  0  0  0  0  0
   12.7566   -3.3206    3.2852 O   0  0  0  0  0  0  0  0  0  0  0  0
   15.1241   -2.8543    2.5796 N   0  0  0  0  0  4  0  0  0  0  0  0
   15.9357   -1.9998    2.3098 O   0  0  0  0  0  0  0  0  0  0  0  0
   15.4388   -4.0209    2.5397 O   0  5  0  0  0  0  0  0  0  0  0  0
    8.1897   -5.0676   -0.2643 C   0  0  1  0  0  0  0  0  0  0  0  0
    7.3406   -4.0065   -0.9250 N   0  3  0  0  0  0  0  0  0  0  0  0
    9.2316   -5.5888   -1.2562 C   0  0  0  0  0  0  0  0  0  0  0  0
    8.5333   -6.1972   -2.4449 C   0  0  0  0  0  0  0  0  0  0  0  0
    7.3152   -6.2125   -2.4943 O   0  0  0  0  0  0  0  0  0  0  0  0
    9.1865   -6.6740   -3.3574 O   0  0  0  0  0  1  0  0  0  0  0  0
    7.3459   -6.2019    0.2577 C   0  0  0  0  0  0  0  0  0  0  0  0
    6.1461   -6.2186    0.0417 O   0  0  0  0  0  0  0  0  0  0  0  0
    7.8630   -7.1028    0.8960 O   0  0  0  0  0  1  0  0  0  0  0  0
   -0.9603    1.9042    0.0260 H   0  0  0  0  0  0  0  0  0  0  0  0
    1.1483    3.1717    0.0077 H   0  0  0  0  0  0  0  0  0  0  0  0
    3.3023    1.9834   -0.0191 H   0  0  0  0  0  0  0  0  0  0  0  0
    1.2186   -1.7603   -0.0193 H   0  0  0  0  0  0  0  0  0  0  0  0
   -0.9264   -0.5558    0.0082 H   0  0  0  0  0  0  0  0  0  0  0  0
    4.8823    1.1040   -0.0299 H   0  0  0  0  0  0  0  0  0  0  0  0
    7.0273   -0.1005   -0.0564 H   0  0  0  0  0  0  0  0  0  0  0  0
    4.9525   -3.8278   -0.0771 H   0  0  0  0  0  0  0  0  0  0  0  0
    2.7986   -2.6396   -0.0392 H   0  0  0  0  0  0  0  0  0  0  0  0
    9.7932   -2.5093    4.6249 H   0  0  0  0  0  0  0  0  0  0  0  0
   10.4807   -4.1469    4.5076 H   0  0  0  0  0  0  0  0  0  0  0  0
   11.2324   -0.4938    3.5944 H   0  0  0  0  0  0  0  0  0  0  0  0
   13.8202   -0.3068    2.8434 H   0  0  0  0  0  0  0  0  0  0  0  0
    6.3830   -4.3219   -0.9643 H   0  0  0  0  0  0  0  0  0  0  0  0
    9.8619   -4.7637   -1.5881 H   0  0  0  0  0  0  0  0  0  0  0  0
    9.8487   -6.3450   -0.7710 H   0  0  0  0  0  0  0  0  0  0  0  0
    7.6779   -3.8147   -1.8564 H   0  0  0  0  0  0  0  0  0  0  0  0
  1  6  2  0  0  0  0
  1  2  1  0  0  0  0
  1 42  1  0  0  0  0
  2  3  2  0  0  0  0
  2 43  1  0  0  0  0
  3  4  1  0  0  0  0
  3 44  1  0  0  0  0
  4  5  2  0  0  0  0
  4  7  1  0  0  0  0
  5  6  1  0  0  0  0
  5 45  1  0  0  0  0
  6 46  1  0  0  0  0
  7 12  2  0  0  0  0
  7  8  1  0  0  0  0
  8  9  2  0  0  0  0
  8 47  1  0  0  0  0
  9 10  1  0  0  0  0
  9 48  1  0  0  0  0
 10 11  2  0  0  0  0
 10 13  1  0  0  0  0
 11 12  1  0  0  0  0
 11 49  1  0  0  0  0
 12 50  1  0  0  0  0
 13 14  1  6  0  0  0
 13 34  1  0  0  0  0
 13 15  1  0  0  0  0
 15 16  1  1  0  0  0
 15 22  1  0  0  0  0
 15 17  1  0  0  0  0
 17 18  1  6  0  0  0
 17 19  1  0  0  0  0
 17 33  1  0  0  0  0
 19 20  2  0  0  0  0
 19 21  1  0  0  0  0
 21 22  1  0  0  0  0
 21 24  1  0  0  0  0
 22 23  2  0  0  0  0
 24 25  1  0  0  0  0
 24 51  1  0  0  0  0
 24 52  1  0  0  0  0
 25 29  1  0  0  0  0
 25 26  2  0  0  0  0
 26 27  1  0  0  0  0
 26 53  1  0  0  0  0
 27 28  2  0  0  0  0
 27 54  1  0  0  0  0
 28 29  1  0  0  0  0
 28 30  1  0  0  0  0
 30 31  2  0  0  0  0
 30 32  1  0  0  0  0
 33 34  1  0  0  0  0
 33 35  1  0  0  0  0
 33 39  1  1  0  0  0
 34 55  1  0  0  0  0
 34 58  1  0  0  0  0
 35 36  1  0  0  0  0
 35 56  1  0  0  0  0
 35 57  1  0  0  0  0
 36 37  2  0  0  0  0
 36 38  1  0  0  0  0
 39 40  2  0  0  0  0
 39 41  1  0  0  0  0
M  CHG  2  32  -1  34   1
M  END
$$$$
ZINC43742899
 OpenBabel01252620473D

 72 74  0  0  1  0  0  0  0  0999 V2000
    0.1704    1.5095   -0.0177 C   0  0  0  0  0  0  0  0  0  0  0  0
    0.1634   -0.0270   -0.0101 C   0  0  2  0  0  0  0  0  0  0  0  0
   -1.2810   -0.5187    0.0076 C   0  0  0  0  0  0  0  0  0  0  0  0
   -1.9713   -0.0391    1.2852 C   0  0  0  0  0  0  0  0  0  0  0  0
   -1.2561   -0.5634    2.5197 C   0  0  2  0  0  0  0  0  0  0  0  0
   -1.7029   -0.0820    3.4066 H   0  0  0  0  0  0  0  0  0  0  0  0
    0.2370   -0.2622    2.5230 C   0  0  1  0  0  0  0  0  0  0  0  0
    0.9112   -0.5932    1.1941 C   0  0  1  0  0  0  0  0  0  0  0  0
    1.9251   -0.1616    1.2026 H   0  0  0  0  0  0  0  0  0  0  0  0
    1.0501   -2.1156    1.0823 C   0  0  0  0  0  0  0  0  0  0  0  0
    1.7642   -2.5398   -0.2052 C   0  0  0  0  0  0  0  0  0  0  0  0
    1.0164   -1.9259   -1.3682 C   0  0  0  0  0  0  0  0  0  0  0  0
    0.5457   -2.6490   -2.3467 C   0  0  0  0  0  0  0  0  0  0  0  0
    0.8563   -0.4278   -1.3206 C   0  0  1  0  0  0  0  0  0  0  0  0
    1.8527    0.0342   -1.3337 H   0  0  0  0  0  0  0  0  0  0  0  0
    0.0824    0.0605   -2.5115 C   0  0  0  0  0  0  0  0  0  0  0  0
    0.6485    0.8935   -3.3740 C   0  0  0  0  0  0  0  0  0  0  0  0
   -0.1131    1.3741   -4.5459 C   0  0  0  0  0  0  0  0  0  0  0  0
    0.3484    2.2130   -5.4918 C   0  0  0  0  0  0  0  0  0  0  0  0
   -0.7770    2.4142   -6.4789 C   0  0  0  0  0  0  0  0  0  0  0  0
   -1.8779    1.6313   -6.0081 O   0  0  0  0  0  0  0  0  0  0  0  0
   -1.5021    1.0096   -4.8767 C   0  0  0  0  0  0  0  0  0  0  0  0
   -2.2033    0.2627   -4.2236 O   0  0  0  0  0  0  0  0  0  0  0  0
    0.4758    1.1922    2.9490 C   0  0  0  0  0  0  0  0  0  0  0  0
    0.8654   -1.1171    3.6503 C   0  0  0  0  0  0  0  0  0  0  0  0
    0.2747   -0.7629    4.9023 O   0  0  0  0  0  0  0  0  0  0  0  0
    0.7125   -1.4172    5.9895 C   0  0  0  0  0  0  0  0  0  0  0  0
    1.5689   -2.2626    5.8817 O   0  0  0  0  0  0  0  0  0  0  0  0
    0.1359   -1.0972    7.3446 C   0  0  0  0  0  0  0  0  0  0  0  0
    0.8027   -1.9777    8.4034 C   0  0  0  0  0  0  0  0  0  0  0  0
    0.2261   -1.6577    9.7585 C   0  0  0  0  0  0  0  0  0  0  0  0
   -0.6381   -0.8046    9.8673 O   0  0  0  0  0  0  0  0  0  0  0  0
    0.6238   -2.2520   10.7460 O   0  0  0  0  0  1  0  0  0  0  0  0
   -1.4722   -1.9720    2.6468 O   0  0  0  0  0  0  0  0  0  0  0  0
   -2.5425   -2.3628    3.3564 C   0  0  0  0  0  0  0  0  0  0  0  0
   -3.2719   -1.5376    3.8534 O   0  0  0  0  0  0  0  0  0  0  0  0
   -2.8343   -3.8306    3.5332 C   0  0  0  0  0  0  0  0  0  0  0  0
   -4.0999   -4.0011    4.3759 C   0  0  0  0  0  0  0  0  0  0  0  0
   -4.3918   -5.4689    4.5528 C   0  0  0  0  0  0  0  0  0  0  0  0
   -3.6557   -6.3015    4.0513 O   0  0  0  0  0  0  0  0  0  0  0  0
   -5.3639   -5.8239    5.1974 O   0  0  0  0  0  1  0  0  0  0  0  0
    1.1909    1.8688    0.1150 H   0  0  0  0  0  0  0  0  0  0  0  0
   -0.2209    1.8699   -0.9691 H   0  0  0  0  0  0  0  0  0  0  0  0
   -0.4537    1.8798    0.7956 H   0  0  0  0  0  0  0  0  0  0  0  0
   -1.8340   -0.1237   -0.8458 H   0  0  0  0  0  0  0  0  0  0  0  0
   -1.3013   -1.6084   -0.0288 H   0  0  0  0  0  0  0  0  0  0  0  0
   -2.0328    1.0458    1.3079 H   0  0  0  0  0  0  0  0  0  0  0  0
   -3.0017   -0.4261    1.2836 H   0  0  0  0  0  0  0  0  0  0  0  0
    1.6529   -2.5193    1.8993 H   0  0  0  0  0  0  0  0  0  0  0  0
    0.0624   -2.5763    1.1032 H   0  0  0  0  0  0  0  0  0  0  0  0
    2.7906   -2.1767   -0.1937 H   0  0  0  0  0  0  0  0  0  0  0  0
    1.7538   -3.6251   -0.2915 H   0  0  0  0  0  0  0  0  0  0  0  0
    0.6852   -3.7199   -2.3424 H   0  0  0  0  0  0  0  0  0  0  0  0
    0.0165   -2.1766   -3.1611 H   0  0  0  0  0  0  0  0  0  0  0  0
   -0.9353   -0.2668   -2.6654 H   0  0  0  0  0  0  0  0  0  0  0  0
    1.6662    1.2208   -3.2201 H   0  0  0  0  0  0  0  0  0  0  0  0
    1.3322    2.6563   -5.5363 H   0  0  0  0  0  0  0  0  0  0  0  0
   -1.0567    3.4671   -6.5167 H   0  0  0  0  0  0  0  0  0  0  0  0
   -0.4718    2.0727   -7.4679 H   0  0  0  0  0  0  0  0  0  0  0  0
    0.2189    1.3093    4.0018 H   0  0  0  0  0  0  0  0  0  0  0  0
    1.5253    1.4466    2.8007 H   0  0  0  0  0  0  0  0  0  0  0  0
   -0.1471    1.8540    2.3472 H   0  0  0  0  0  0  0  0  0  0  0  0
    0.6848   -2.1731    3.4491 H   0  0  0  0  0  0  0  0  0  0  0  0
    1.9391   -0.9333    3.6902 H   0  0  0  0  0  0  0  0  0  0  0  0
    0.3170   -0.0480    7.5780 H   0  0  0  0  0  0  0  0  0  0  0  0
   -0.9373   -1.2878    7.3370 H   0  0  0  0  0  0  0  0  0  0  0  0
    0.6217   -3.0269    8.1700 H   0  0  0  0  0  0  0  0  0  0  0  0
    1.8759   -1.7871    8.4110 H   0  0  0  0  0  0  0  0  0  0  0  0
   -2.9832   -4.2917    2.5568 H   0  0  0  0  0  0  0  0  0  0  0  0
   -1.9950   -4.3098    4.0372 H   0  0  0  0  0  0  0  0  0  0  0  0
   -3.9511   -3.5400    5.3524 H   0  0  0  0  0  0  0  0  0  0  0  0
   -4.9393   -3.5219    3.8720 H   0  0  0  0  0  0  0  0  0  0  0  0
  1 42  1  0  0  0  0
  1 43  1  0  0  0  0
  1 44  1  0  0  0  0
  2  1  1  1  0  0  0
  2  8  1  0  0  0  0
  2 14  1  0  0  0  0
  2  3  1  0  0  0  0
  3  4  1  0  0  0  0
  3 45  1  0  0  0  0
  3 46  1  0  0  0  0
  4  5  1  0  0  0  0
  4 47  1  0  0  0  0
  4 48  1  0  0  0  0
  5  6  1  1  0  0  0
  5  7  1  0  0  0  0
  5 34  1  0  0  0  0
  7  8  1  0  0  0  0
  7 24  1  1  0  0  0
  7 25  1  0  0  0  0
  8  9  1  1  0  0  0
  8 10  1  0  0  0  0
 10 11  1  0  0  0  0
 10 49  1  0  0  0  0
 10 50  1  0  0  0  0
 11 12  1  0  0  0  0
 11 51  1  0  0  0  0
 11 52  1  0  0  0  0
 12 13  2  0  0  0  0
 12 14  1  0  0  0  0
 13 53  1  0  0  0  0
 13 54  1  0  0  0  0
 14 15  1  6  0  0  0
 14 16  1  0  0  0  0
 16 17  2  0  0  0  0
 16 55  1  0  0  0  0
 17 18  1  0  0  0  0
 17 56  1  0  0  0  0
 18 22  1  0  0  0  0
 18 19  2  0  0  0  0
 19 20  1  0  0  0  0
 19 57  1  0  0  0  0
 20 21  1  0  0  0  0
 20 58  1  0  0  0  0
 20 59  1  0  0  0  0
 21 22  1  0  0  0  0
 22 23  2  0  0  0  0
 24 60  1  0  0  0  0
 24 61  1  0  0  0  0
 24 62  1  0  0  0  0
 25 26  1  0  0  0  0
 25 63  1  0  0  0  0
 25 64  1  0  0  0  0
 26 27  1  0  0  0  0
 27 28  2  0  0  0  0
 27 29  1  0  0  0  0
 29 30  1  0  0  0  0
 29 65  1  0  0  0  0
 29 66  1  0  0  0  0
 30 31  1  0  0  0  0
 30 67  1  0  0  0  0
 30 68  1  0  0  0  0
 31 32  2  0  0  0  0
 31 33  1  0  0  0  0
 34 35  1  0  0  0  0
 35 36  2  0  0  0  0
 35 37  1  0  0  0  0
 37 38  1  0  0  0  0
 37 69  1  0  0  0  0
 37 70  1  0  0  0  0
 38 39  1  0  0  0  0
 38 71  1  0  0  0  0
 38 72  1  0  0  0  0
 39 40  2  0  0  0  0
 39 41  1  0  0  0  0
M  END
$$$$
ZINC62216338
 OpenBabel01252620473D

 39 39  0  0  0  0  0  0  0  0999 V2000
   -0.6167    1.5067   -2.1653 C   0  0  0  0  0  0  0  0  0  0  0  0
   -0.6039   -0.0002   -2.1693 C   0  0  0  0  0  0  0  0  0  0  0  0
   -1.1370   -0.6088   -3.0728 O   0  0  0  0  0  0  0  0  0  0  0  0
    0.0001   -0.6716   -1.1688 N   0  0  0  0  0  0  0  0  0  0  0  0
   -0.0708   -2.0682   -1.1208 C   0  0  0  0  0  0  0  0  0  0  0  0
   -0.1518   -2.7187    0.1043 C   0  0  0  0  0  0  0  0  0  0  0  0
   -0.2212   -4.0976    0.1528 C   0  0  0  0  0  0  0  0  0  0  0  0
   -0.2110   -4.8344   -1.0160 C   0  0  0  0  0  0  0  0  0  0  0  0
   -0.1306   -4.1900   -2.2444 C   0  0  0  0  0  0  0  0  0  0  0  0
   -0.0660   -2.8044   -2.2965 C   0  0  0  0  0  0  0  0  0  0  0  0
   -0.1203   -4.9353   -3.4256 N   0  0  0  0  0  2  0  0  0  0  0  0
   -0.2038   -6.5880   -3.3626 S   0  0  0  0  0  0  0  0  0  0  0  0
    0.9874   -6.9862   -2.6979 O   0  0  0  0  0  0  0  0  0  0  0  0
   -1.4770   -6.8654   -2.7957 O   0  0  0  0  0  0  0  0  0  0  0  0
   -0.1613   -7.1234   -5.0952 C   0  0  0  0  0  0  0  0  0  0  0  0
   -0.2336   -8.6503   -5.1592 C   0  0  0  0  0  0  0  0  0  0  0  0
   -0.1993   -9.0827   -6.5585 N   0  0  0  0  0  0  0  0  0  0  0  0
    0.1097  -10.6670   -6.9283 S   0  0  0  0  0  0  0  0  0  0  0  0
    0.0491  -10.7729   -8.3440 O   0  0  0  0  0  0  0  0  0  0  0  0
    1.2618  -11.0403   -6.1850 O   0  0  0  0  0  0  0  0  0  0  0  0
   -1.1489  -11.5633   -6.3324 N   0  0  0  0  0  0  0  0  0  0  0  0
   -2.4963  -11.3890   -6.8805 C   0  0  0  0  0  0  0  0  0  0  0  0
   -1.5022    1.8611   -1.6376 H   0  0  0  0  0  0  0  0  0  0  0  0
    0.2775    1.8764   -1.6635 H   0  0  0  0  0  0  0  0  0  0  0  0
   -0.6347    1.8727   -3.1919 H   0  0  0  0  0  0  0  0  0  0  0  0
    0.4839   -0.1866   -0.4820 H   0  0  0  0  0  0  0  0  0  0  0  0
   -0.1600   -2.1457    1.0197 H   0  0  0  0  0  0  0  0  0  0  0  0
   -0.2834   -4.6007    1.1064 H   0  0  0  0  0  0  0  0  0  0  0  0
   -0.2650   -5.9122   -0.9748 H   0  0  0  0  0  0  0  0  0  0  0  0
   -0.0080   -2.3008   -3.2501 H   0  0  0  0  0  0  0  0  0  0  0  0
   -1.0110   -6.6967   -5.6283 H   0  0  0  0  0  0  0  0  0  0  0  0
    0.7655   -6.7838   -5.5578 H   0  0  0  0  0  0  0  0  0  0  0  0
    0.6161   -9.0769   -4.6261 H   0  0  0  0  0  0  0  0  0  0  0  0
   -1.1604   -8.9898   -4.6966 H   0  0  0  0  0  0  0  0  0  0  0  0
   -0.3575   -8.4409   -7.2684 H   0  0  0  0  0  0  0  0  0  0  0  0
   -0.9940  -12.2036   -5.6204 H   0  0  0  0  0  0  0  0  0  0  0  0
   -2.8165  -10.3571   -6.7365 H   0  0  0  0  0  0  0  0  0  0  0  0
   -2.4883  -11.6218   -7.9453 H   0  0  0  0  0  0  0  0  0  0  0  0
   -3.1866  -12.0586   -6.3674 H   0  0  0  0  0  0  0  0  0  0  0  0
  1  2  1  0  0  0  0
  1 23  1  0  0  0  0
  1 24  1  0  0  0  0
  1 25  1  0  0  0  0
  2  3  2  0  0  0  0
  2  4  1  0  0  0  0
  4  5  1  0  0  0  0
  4 26  1  0  0  0  0
  5 10  2  0  0  0  0
  5  6  1  0  0  0  0
  6  7  2  0  0  0  0
  6 27  1  0  0  0  0
  7  8  1  0  0  0  0
  7 28  1  0  0  0  0
  8  9  2  0  0  0  0
  8 29  1  0  0  0  0
  9 10  1  0  0  0  0
  9 11  1  0  0  0  0
 10 30  1  0  0  0  0
 11 12  1  0  0  0  0
 12 13  2  0  0  0  0
 12 14  2  0  0  0  0
 12 15  1  0  0  0  0
 15 16  1  0  0  0  0
 15 31  1  0  0  0  0
 15 32  1  0  0  0  0
 16 17  1  0  0  0  0
 16 33  1  0  0  0  0
 16 34  1  0  0  0  0
 17 18  1  0  0  0  0
 17 35  1  0  0  0  0
 18 19  2  0  0  0  0
 18 20  2  0  0  0  0
 18 21  1  0  0  0  0
 21 22  1  0  0  0  0
 21 36  1  0  0  0  0
 22 37  1  0  0  0  0
 22 38  1  0  0  0  0
 22 39  1  0  0  0  0
M  END
$$$$
ZINC65791960
 OpenBabel01252620473D

 41 42  0  0  0  0  0  0  0  0999 V2000
   -0.3322    1.5126   -0.1661 C   0  0  0  0  0  0  0  0  0  0  0  0
   -0.1455   -0.0038   -0.0858 C   0  0  0  0  0  0  0  0  0  0  0  0
    0.6471   -0.5967   -1.6060 S   0  0  0  0  0  0  0  0  0  0  0  0
   -0.2365   -0.4477   -2.7089 O   0  0  0  0  0  0  0  0  0  0  0  0
    1.9837   -0.1199   -1.6791 O   0  0  0  0  0  0  0  0  0  0  0  0
    0.7929   -2.2333   -1.3995 N   0  0  0  0  0  2  0  0  0  0  0  0
    1.3739   -3.0159   -2.4029 C   0  0  0  0  0  0  0  0  0  0  0  0
    1.8336   -2.4197   -3.5701 C   0  0  0  0  0  0  0  0  0  0  0  0
    2.4069   -3.1922   -4.5603 C   0  0  0  0  0  0  0  0  0  0  0  0
    2.5235   -4.5652   -4.3896 C   0  0  0  0  0  0  0  0  0  0  0  0
    2.0636   -5.1616   -3.2231 C   0  0  0  0  0  0  0  0  0  0  0  0
    1.4963   -4.3885   -2.2298 C   0  0  0  0  0  0  0  0  0  0  0  0
    3.1051   -5.3494   -5.3952 N   0  0  0  0  0  0  0  0  0  0  0  0
    4.0997   -4.8453   -6.1522 C   0  0  0  0  0  0  0  0  0  0  0  0
    4.5567   -3.7499   -5.9022 O   0  0  0  0  0  0  0  0  0  0  0  0
    4.6441   -5.6426   -7.3094 C   0  0  0  0  0  0  0  0  0  0  0  0
    5.7567   -4.8489   -7.9971 C   0  0  0  0  0  0  0  0  0  0  0  0
    6.2859   -5.6240   -9.1220 N   0  0  0  0  0  0  0  0  0  0  0  0
    6.3773   -5.2051  -10.4016 C   0  0  0  0  0  0  0  0  0  0  0  0
    6.9174   -6.2113  -11.1274 C   0  0  0  0  0  0  0  0  0  0  0  0
    7.1646   -7.2818  -10.2617 C   0  0  0  0  0  0  0  0  0  0  0  0
    6.7920   -6.9286   -9.0582 N   0  0  0  0  0  0  0  0  0  0  0  0
    7.1968   -6.1842  -12.5807 N   0  0  0  0  0  4  0  0  0  0  0  0
    6.9379   -5.1963  -13.2277 O   0  0  0  0  0  0  0  0  0  0  0  0
    7.6840   -7.1499  -13.1208 O   0  5  0  0  0  0  0  0  0  0  0  0
    0.6396    1.9928   -0.2802 H   0  0  0  0  0  0  0  0  0  0  0  0
   -0.9608    1.7565   -1.0225 H   0  0  0  0  0  0  0  0  0  0  0  0
   -0.8085    1.8689    0.7474 H   0  0  0  0  0  0  0  0  0  0  0  0
    0.4831   -0.2477    0.7706 H   0  0  0  0  0  0  0  0  0  0  0  0
   -1.1174   -0.4840    0.0283 H   0  0  0  0  0  0  0  0  0  0  0  0
    1.7422   -1.3518   -3.7031 H   0  0  0  0  0  0  0  0  0  0  0  0
    2.7643   -2.7286   -5.4679 H   0  0  0  0  0  0  0  0  0  0  0  0
    2.1538   -6.2297   -3.0908 H   0  0  0  0  0  0  0  0  0  0  0  0
    1.1433   -4.8517   -1.3203 H   0  0  0  0  0  0  0  0  0  0  0  0
    2.7918   -6.2549   -5.5463 H   0  0  0  0  0  0  0  0  0  0  0  0
    5.0452   -6.5875   -6.9428 H   0  0  0  0  0  0  0  0  0  0  0  0
    3.8441   -5.8399   -8.0230 H   0  0  0  0  0  0  0  0  0  0  0  0
    5.3556   -3.9040   -8.3637 H   0  0  0  0  0  0  0  0  0  0  0  0
    6.5567   -4.6516   -7.2835 H   0  0  0  0  0  0  0  0  0  0  0  0
    6.0732   -4.2399  -10.7789 H   0  0  0  0  0  0  0  0  0  0  0  0
    7.5935   -8.2337  -10.5381 H   0  0  0  0  0  0  0  0  0  0  0  0
  1  2  1  0  0  0  0
  1 26  1  0  0  0  0
  1 27  1  0  0  0  0
  1 28  1  0  0  0  0
  2  3  1  0  0  0  0
  2 29  1  0  0  0  0
  2 30  1  0  0  0  0
  3  4  2  0  0  0  0
  3  5  2  0  0  0  0
  3  6  1  0  0  0  0
  6  7  1  0  0  0  0
  7 12  2  0  0  0  0
  7  8  1  0  0  0  0
  8  9  2  0  0  0  0
  8 31  1  0  0  0  0
  9 10  1  0  0  0  0
  9 32  1  0  0  0  0
 10 11  2  0  0  0  0
 10 13  1  0  0  0  0
 11 12  1  0  0  0  0
 11 33  1  0  0  0  0
 12 34  1  0  0  0  0
 13 14  1  0  0  0  0
 13 35  1  0  0  0  0
 14 15  2  0  0  0  0
 14 16  1  0  0  0  0
 16 17  1  0  0  0  0
 16 36  1  0  0  0  0
 16 37  1  0  0  0  0
 17 18  1  0  0  0  0
 17 38  1  0  0  0  0
 17 39  1  0  0  0  0
 18 22  1  0  0  0  0
 18 19  1  0  0  0  0
 19 20  2  0  0  0  0
 19 40  1  0  0  0  0
 20 21  1  0  0  0  0
 20 23  1  0  0  0  0
 21 22  2  0  0  0  0
 21 41  1  0  0  0  0
 23 24  2  0  0  0  0
 23 25  1  0  0  0  0
M  CHG  1  25  -1
M  END
$$$$
ZINC13059435
 OpenBabel01252620473D

 40 41  0  0  0  0  0  0  0  0999 V2000
   -0.0173    1.4248    0.0099 C   0  0  0  0  0  0  0  0  0  0  0  0
    0.0021   -0.0041    0.0020 O   0  0  0  0  0  0  0  0  0  0  0  0
    0.6062   -0.6075   -1.0564 C   0  0  0  0  0  0  0  0  0  0  0  0
    1.1701    0.1578   -2.0575 C   0  0  0  0  0  0  0  0  0  0  0  0
    1.7914   -0.4672   -3.1458 C   0  0  0  0  0  0  0  0  0  0  0  0
    1.8369   -1.8652   -3.2124 C   0  0  0  0  0  0  0  0  0  0  0  0
    1.2717   -2.6205   -2.2093 C   0  0  0  0  0  0  0  0  0  0  0  0
    0.6608   -1.9994   -1.1274 C   0  0  0  0  0  0  0  0  0  0  0  0
    0.1106   -2.7497   -0.1383 O   0  0  0  0  0  0  0  0  0  0  0  0
   -1.2612   -3.1198   -0.2915 C   0  0  0  0  0  0  0  0  0  0  0  0
    1.3300   -4.3794   -2.2947 S   0  0  0  0  0  0  0  0  0  0  0  0
    0.0103   -4.8422   -2.0427 O   0  0  0  0  0  0  0  0  0  0  0  0
    2.0375   -4.7051   -3.4832 O   0  0  0  0  0  0  0  0  0  0  0  0
    2.2638   -4.9004   -1.0302 N   0  0  0  0  0  2  0  0  0  0  0  0
    2.4886   -6.2680   -0.8439 C   0  0  0  0  0  0  0  0  0  0  0  0
    1.9344   -7.1901   -1.7217 C   0  0  0  0  0  0  0  0  0  0  0  0
    2.1582   -8.5407   -1.5360 C   0  0  0  0  0  0  0  0  0  0  0  0
    2.9334   -8.9764   -0.4773 C   0  0  0  0  0  0  0  0  0  0  0  0
    3.4879   -8.0617    0.4008 C   0  0  0  0  0  0  0  0  0  0  0  0
    3.2724   -6.7071    0.2173 C   0  0  0  0  0  0  0  0  0  0  0  0
    3.8179   -5.8133    1.0709 F   0  0  0  0  0  0  0  0  0  0  0  0
    4.4601   -8.6135    1.7290 Cl  0  0  0  0  0  0  0  0  0  0  0  0
    2.3928    0.3410   -4.2143 C   0  0  0  0  0  0  0  0  0  0  0  0
    2.3472    1.6920   -4.1481 C   0  0  0  0  0  0  0  0  0  0  0  0
    2.9261    2.4700   -5.1766 C   0  0  0  0  0  0  0  0  0  0  0  0
    3.4691    1.9212   -6.1280 O   0  0  0  0  0  0  0  0  0  0  0  0
    2.8848    3.6931   -5.1166 O   0  0  0  0  0  1  0  0  0  0  0  0
    1.0053    1.8021    0.0021 H   0  0  0  0  0  0  0  0  0  0  0  0
   -0.5445    1.7859   -0.8732 H   0  0  0  0  0  0  0  0  0  0  0  0
   -0.5275    1.7763    0.9067 H   0  0  0  0  0  0  0  0  0  0  0  0
    1.1320    1.2357   -2.0015 H   0  0  0  0  0  0  0  0  0  0  0  0
    2.3148   -2.3508   -4.0504 H   0  0  0  0  0  0  0  0  0  0  0  0
   -1.3800   -3.7048   -1.2035 H   0  0  0  0  0  0  0  0  0  0  0  0
   -1.5747   -3.7155    0.5657 H   0  0  0  0  0  0  0  0  0  0  0  0
   -1.8751   -2.2213   -0.3536 H   0  0  0  0  0  0  0  0  0  0  0  0
    1.3282   -6.8517   -2.5490 H   0  0  0  0  0  0  0  0  0  0  0  0
    1.7265   -9.2574   -2.2189 H   0  0  0  0  0  0  0  0  0  0  0  0
    3.1064  -10.0329   -0.3352 H   0  0  0  0  0  0  0  0  0  0  0  0
    2.8715   -0.1427   -5.0529 H   0  0  0  0  0  0  0  0  0  0  0  0
    1.8685    2.1757   -3.3095 H   0  0  0  0  0  0  0  0  0  0  0  0
  1  2  1  0  0  0  0
  1 28  1  0  0  0  0
  1 29  1  0  0  0  0
  1 30  1  0  0  0  0
  2  3  1  0  0  0  0
  3  8  2  0  0  0  0
  3  4  1  0  0  0  0
  4  5  2  0  0  0  0
  4 31  1  0  0  0  0
  5  6  1  0  0  0  0
  5 23  1  0  0  0  0
  6  7  2  0  0  0  0
  6 32  1  0  0  0  0
  7  8  1  0  0  0  0
  7 11  1  0  0  0  0
  8  9  1  0  0  0  0
  9 10  1  0  0  0  0
 10 33  1  0  0  0  0
 10 34  1  0  0  0  0
 10 35  1  0  0  0  0
 11 12  2  0  0  0  0
 11 13  2  0  0  0  0
 11 14  1  0  0  0  0
 14 15  1  0  0  0  0
 15 20  2  0  0  0  0
 15 16  1  0  0  0  0
 16 17  2  0  0  0  0
 16 36  1  0  0  0  0
 17 18  1  0  0  0  0
 17 37  1  0  0  0  0
 18 19  2  0  0  0  0
 18 38  1  0  0  0  0
 19 20  1  0  0  0  0
 19 22  1  0  0  0  0
 20 21  1  0  0  0  0
 23 24  2  0  0  0  0
 23 39  1  0  0  0  0
 24 25  1  0  0  0  0
 24 40  1  0  0  0  0
 25 26  2  0  0  0  0
 25 27  1  0  0  0  0
M  END
$$$$
ZINC39724692
 OpenBabel01252620473D

 52 54  0  0  1  0  0  0  0  0999 V2000
   -0.0187    1.5258    0.0104 C   0  0  0  0  0  0  0  0  0  0  0  0
    0.0021   -0.0041    0.0020 C   0  0  0  0  0  0  0  0  0  0  0  0
    0.7074   -0.4901   -1.2379 C   0  0  0  0  0  0  0  0  0  0  0  0
    1.7817   -1.3539   -1.1373 C   0  0  0  0  0  0  0  0  0  0  0  0
    2.4056   -1.7798   -2.3095 C   0  0  0  0  0  0  0  0  0  0  0  0
    3.4620   -2.6270   -2.2567 O   0  5  0  0  0  0  0  0  0  0  0  0
    1.9502   -1.3441   -3.4774 N   0  0  0  0  0  0  0  0  0  0  0  0
    0.9170   -0.5157   -3.5330 C   0  0  0  0  0  0  0  0  0  0  0  0
    0.3013   -0.0984   -2.4361 N   0  0  0  0  0  0  0  0  0  0  0  0
    0.3437    0.0389   -5.1041 S   0  0  0  0  0  0  0  0  0  0  0  0
    1.4527   -0.7734   -6.2877 C   0  0  2  0  0  0  0  0  0  0  0  0
    1.4376   -1.8503   -6.1195 H   0  0  0  0  0  0  0  0  0  0  0  0
    2.8765   -0.2472   -6.0965 C   0  0  0  0  0  0  0  0  0  0  0  0
    0.9922   -0.4778   -7.6919 C   0  0  0  0  0  0  0  0  0  0  0  0
    0.3436    0.5213   -7.9197 O   0  0  0  0  0  0  0  0  0  0  0  0
    1.3013   -1.3238   -8.6945 N   0  0  0  0  0  0  0  0  0  0  0  0
    0.8537   -1.0365  -10.0596 C   0  0  2  0  0  0  0  0  0  0  0  0
    0.0130   -1.6698  -10.3428 H   0  0  0  0  0  0  0  0  0  0  0  0
    2.0152   -1.1482  -11.0731 C   0  0  1  0  0  0  0  0  0  0  0  0
    1.6240   -1.5080  -12.0247 H   0  0  0  0  0  0  0  0  0  0  0  0
    2.6959    0.1898  -11.2911 C   0  0  0  0  0  0  0  0  0  0  0  0
    2.0299    1.2769  -10.9453 C   0  0  0  0  0  0  0  0  0  0  0  0
    0.4602    0.7481  -10.2804 S   0  0  0  0  0  0  0  0  0  0  0  0
    2.8104    2.5396  -11.2236 C   0  0  0  0  0  0  0  0  0  0  0  0
    4.2685    2.0617  -11.3931 C   0  0  0  0  0  0  0  0  0  0  0  0
    4.0580    0.6079  -11.8577 C   0  0  0  0  0  0  0  0  0  0  0  0
    3.0288   -2.1349  -10.5535 C   0  0  0  0  0  0  0  0  0  0  0  0
    4.1583   -1.7745  -10.3205 O   0  0  0  0  0  0  0  0  0  0  0  0
    2.6769   -3.4141  -10.3495 O   0  0  0  0  0  0  0  0  0  0  0  0
    3.6885   -4.2944   -9.8557 C   0  0  0  0  0  0  0  0  0  0  0  0
    3.1048   -5.6986   -9.6874 C   0  0  0  0  0  0  0  0  0  0  0  0
    1.0039    1.9031    0.0027 H   0  0  0  0  0  0  0  0  0  0  0  0
   -0.5459    1.8868   -0.8726 H   0  0  0  0  0  0  0  0  0  0  0  0
   -0.5289    1.8773    0.9072 H   0  0  0  0  0  0  0  0  0  0  0  0
    0.5293   -0.3651    0.8851 H   0  0  0  0  0  0  0  0  0  0  0  0
   -1.0205   -0.3814    0.0098 H   0  0  0  0  0  0  0  0  0  0  0  0
    2.1303   -1.6913   -0.1724 H   0  0  0  0  0  0  0  0  0  0  0  0
    3.5429   -0.7353   -6.8076 H   0  0  0  0  0  0  0  0  0  0  0  0
    2.8915    0.8296   -6.2646 H   0  0  0  0  0  0  0  0  0  0  0  0
    3.2095   -0.4610   -5.0808 H   0  0  0  0  0  0  0  0  0  0  0  0
    1.8200   -2.1229   -8.5123 H   0  0  0  0  0  0  0  0  0  0  0  0
    2.4558    3.0122  -12.1396 H   0  0  0  0  0  0  0  0  0  0  0  0
    2.7311    3.2292  -10.3831 H   0  0  0  0  0  0  0  0  0  0  0  0
    4.7858    2.6452  -12.1547 H   0  0  0  0  0  0  0  0  0  0  0  0
    4.8046    2.0960  -10.4447 H   0  0  0  0  0  0  0  0  0  0  0  0
    4.8448   -0.0329  -11.4596 H   0  0  0  0  0  0  0  0  0  0  0  0
    4.0449    0.5580  -12.9465 H   0  0  0  0  0  0  0  0  0  0  0  0
    4.5176   -4.3278  -10.5624 H   0  0  0  0  0  0  0  0  0  0  0  0
    4.0468   -3.9319   -8.8921 H   0  0  0  0  0  0  0  0  0  0  0  0
    2.2756   -5.6651   -8.9806 H   0  0  0  0  0  0  0  0  0  0  0  0
    2.7465   -6.0610  -10.6509 H   0  0  0  0  0  0  0  0  0  0  0  0
    3.8763   -6.3701   -9.3107 H   0  0  0  0  0  0  0  0  0  0  0  0
  1  2  1  0  0  0  0
  1 32  1  0  0  0  0
  1 33  1  0  0  0  0
  1 34  1  0  0  0  0
  2 35  1  0  0  0  0
  2 36  1  0  0  0  0
  2  3  1  0  0  0  0
  3  4  2  0  0  0  0
  3  9  1  0  0  0  0
  4  5  1  0  0  0  0
  4 37  1  0  0  0  0
  5  7  2  0  0  0  0
  5  6  1  0  0  0  0
  7  8  1  0  0  0  0
  8  9  2  0  0  0  0
  8 10  1  0  0  0  0
 10 11  1  0  0  0  0
 11 12  1  1  0  0  0
 11 13  1  0  0  0  0
 11 14  1  0  0  0  0
 13 38  1  0  0  0  0
 13 39  1  0  0  0  0
 13 40  1  0  0  0  0
 14 15  2  0  0  0  0
 14 16  1  0  0  0  0
 16 17  1  0  0  0  0
 16 41  1  0  0  0  0
 17 18  1  6  0  0  0
 17 23  1  0  0  0  0
 17 19  1  0  0  0  0
 19 20  1  6  0  0  0
 19 21  1  0  0  0  0
 19 27  1  0  0  0  0
 21 26  1  0  0  0  0
 21 22  2  0  0  0  0
 22 23  1  0  0  0  0
 22 24  1  0  0  0  0
 24 25  1  0  0  0  0
 24 42  1  0  0  0  0
 24 43  1  0  0  0  0
 25 26  1  0  0  0  0
 25 44  1  0  0  0  0
 25 45  1  0  0  0  0
 26 46  1  0  0  0  0
 26 47  1  0  0  0  0
 27 28  2  0  0  0  0
 27 29  1  0  0  0  0
 29 30  1  0  0  0  0
 30 31  1  0  0  0  0
 30 48  1  0  0  0  0
 30 49  1  0  0  0  0
 31 50  1  0  0  0  0
 31 51  1  0  0  0  0
 31 52  1  0  0  0  0
M  CHG  1   6  -1
M  END
$$$$
ZINC64535257
 OpenBabel01252620473D

 42 43  0  0  0  0  0  0  0  0999 V2000
   -0.0184    1.5028    0.0103 C   0  0  0  0  0  0  0  0  0  0  0  0
    0.0021   -0.0041    0.0020 C   0  0  0  0  0  0  0  0  0  0  0  0
    0.0058   -0.7049   -1.1572 C   0  0  0  0  0  0  0  0  0  0  0  0
    0.0316   -2.3783   -0.5355 S   0  0  0  0  0  0  0  0  0  0  0  0
    0.0349   -2.0164    1.1081 C   0  0  0  0  0  0  0  0  0  0  0  0
    0.0572   -3.1289    2.4743 S   0  0  0  0  0  1  0  0  0  0  0  0
    0.0227   -0.6998    1.1250 N   0  0  0  0  0  0  0  0  0  0  0  0
   -0.0084   -0.2087   -2.5801 C   0  0  0  0  0  0  0  0  0  0  0  0
    1.4075   -0.0236   -3.0617 C   0  0  0  0  0  0  0  0  0  0  0  0
    2.3367   -0.2703   -2.3224 O   0  0  0  0  0  0  0  0  0  0  0  0
    1.6412    0.4162   -4.3141 N   0  0  0  0  0  0  0  0  0  0  0  0
    3.0177    0.5961   -4.7823 C   0  0  0  0  0  0  0  0  0  0  0  0
    3.0035    1.0924   -6.2052 C   0  0  0  0  0  0  0  0  0  0  0  0
    3.0049    0.1895   -7.2522 C   0  0  0  0  0  0  0  0  0  0  0  0
    2.9918    0.6446   -8.5572 C   0  0  0  0  0  0  0  0  0  0  0  0
    2.9769    2.0028   -8.8156 C   0  0  0  0  0  0  0  0  0  0  0  0
    2.9746    2.9054   -7.7688 C   0  0  0  0  0  0  0  0  0  0  0  0
    2.9833    2.4500   -6.4634 C   0  0  0  0  0  0  0  0  0  0  0  0
    2.9588    4.3857   -8.0504 C   0  0  0  0  0  0  0  0  0  0  0  0
    1.2423    4.9634   -8.1532 S   0  0  0  0  0  0  0  0  0  0  0  0
    0.6107    4.4189   -9.3037 O   0  0  0  0  0  0  0  0  0  0  0  0
    0.6208    4.8804   -6.8780 O   0  0  0  0  0  0  0  0  0  0  0  0
    1.3573    6.5862   -8.4624 N   0  0  0  0  0  0  0  0  0  0  0  0
    1.9383    7.0522   -9.7240 C   0  0  0  0  0  0  0  0  0  0  0  0
    1.0042    1.8801    0.0026 H   0  0  0  0  0  0  0  0  0  0  0  0
   -0.5455    1.8639   -0.8728 H   0  0  0  0  0  0  0  0  0  0  0  0
   -0.5286    1.8543    0.9071 H   0  0  0  0  0  0  0  0  0  0  0  0
   -0.5155   -0.9364   -3.2137 H   0  0  0  0  0  0  0  0  0  0  0  0
   -0.5358    0.7441   -2.6274 H   0  0  0  0  0  0  0  0  0  0  0  0
    0.8981    0.6135   -4.9055 H   0  0  0  0  0  0  0  0  0  0  0  0
    3.5248    1.3239   -4.1488 H   0  0  0  0  0  0  0  0  0  0  0  0
    3.5450   -0.3566   -4.7351 H   0  0  0  0  0  0  0  0  0  0  0  0
    3.0165   -0.8714   -7.0504 H   0  0  0  0  0  0  0  0  0  0  0  0
    2.9936   -0.0606   -9.3751 H   0  0  0  0  0  0  0  0  0  0  0  0
    2.9674    2.3584   -9.8353 H   0  0  0  0  0  0  0  0  0  0  0  0
    2.9777    3.1553   -5.6455 H   0  0  0  0  0  0  0  0  0  0  0  0
    3.4725    4.9139   -7.2471 H   0  0  0  0  0  0  0  0  0  0  0  0
    3.4651    4.5812   -8.9957 H   0  0  0  0  0  0  0  0  0  0  0  0
    1.0399    7.2283   -7.8083 H   0  0  0  0  0  0  0  0  0  0  0  0
    1.9294    8.1419   -9.7475 H   0  0  0  0  0  0  0  0  0  0  0  0
    2.9650    6.6953   -9.8048 H   0  0  0  0  0  0  0  0  0  0  0  0
    1.3526    6.6659  -10.5583 H   0  0  0  0  0  0  0  0  0  0  0  0
  1  2  1  0  0  0  0
  1 25  1  0  0  0  0
  1 26  1  0  0  0  0
  1 27  1  0  0  0  0
  2  7  1  0  0  0  0
  2  3  2  0  0  0  0
  3  4  1  0  0  0  0
  3  8  1  0  0  0  0
  4  5  1  0  0  0  0
  5  6  1  0  0  0  0
  5  7  2  0  0  0  0
  8  9  1  0  0  0  0
  8 28  1  0  0  0  0
  8 29  1  0  0  0  0
  9 10  2  0  0  0  0
  9 11  1  0  0  0  0
 11 12  1  0  0  0  0
 11 30  1  0  0  0  0
 12 13  1  0  0  0  0
 12 31  1  0  0  0  0
 12 32  1  0  0  0  0
 13 18  2  0  0  0  0
 13 14  1  0  0  0  0
 14 15  2  0  0  0  0
 14 33  1  0  0  0  0
 15 16  1  0  0  0  0
 15 34  1  0  0  0  0
 16 17  2  0  0  0  0
 16 35  1  0  0  0  0
 17 18  1  0  0  0  0
 17 19  1  0  0  0  0
 18 36  1  0  0  0  0
 19 20  1  0  0  0  0
 19 37  1  0  0  0  0
 19 38  1  0  0  0  0
 20 21  2  0  0  0  0
 20 22  2  0  0  0  0
 20 23  1  0  0  0  0
 23 24  1  0  0  0  0
 23 39  1  0  0  0  0
 24 40  1  0  0  0  0
 24 41  1  0  0  0  0
 24 42  1  0  0  0  0
M  END
$$$$
ZINC51384071
 OpenBabel01252620473D

 48 50  0  0  1  0  0  0  0  0999 V2000
    0.0028    1.5321    0.0075 C   0  0  0  0  0  0  0  0  0  0  0  0
    0.0103    0.0021    0.0020 C   0  0  0  0  0  0  0  0  0  0  0  0
    0.7190   -0.4999   -1.2576 C   0  0  0  0  0  0  0  0  0  0  0  0
    0.7176   -0.4870    1.1880 N   0  0  0  0  0  0  0  0  0  0  0  0
    0.1164   -1.3456    2.2153 C   0  0  0  0  0  0  0  0  0  0  0  0
    1.3053   -1.9466    2.9975 C   0  0  1  0  0  0  0  0  0  0  0  0
    1.6001   -2.9094    2.5801 H   0  0  0  0  0  0  0  0  0  0  0  0
    2.4042   -0.8835    2.7667 C   0  0  0  0  0  0  0  0  0  0  0  0
    2.0023   -0.2118    1.4722 C   0  0  0  0  0  0  0  0  0  0  0  0
    2.7322    0.4771    0.7913 O   0  0  0  0  0  0  0  0  0  0  0  0
    0.9771   -2.0749    4.4628 C   0  0  0  0  0  0  0  0  0  0  0  0
   -0.1082   -1.7232    4.8742 O   0  0  0  0  0  0  0  0  0  0  0  0
    1.8898   -2.5804    5.3160 N   0  0  0  0  0  0  0  0  0  0  0  0
    1.5708   -2.7051    6.7404 C   0  0  0  0  0  0  0  0  0  0  0  0
    2.7509   -3.2935    7.4698 C   0  0  0  0  0  0  0  0  0  0  0  0
    3.7593   -3.5804    6.8599 O   0  0  0  0  0  0  0  0  0  0  0  0
    2.6859   -3.5008    8.8000 N   0  0  0  0  0  0  0  0  0  0  0  0
    3.7412   -4.1334    9.4603 C   0  0  0  0  0  0  0  0  0  0  0  0
    5.0476   -3.9204    9.0535 C   0  0  0  0  0  0  0  0  0  0  0  0
    6.1014   -4.5442    9.7041 C   0  0  0  0  0  0  0  0  0  0  0  0
    5.8721   -5.3892   10.7690 C   0  0  0  0  0  0  0  0  0  0  0  0
    4.5664   -5.6204   11.1982 C   0  0  0  0  0  0  0  0  0  0  0  0
    3.4879   -4.9845   10.5440 C   0  0  0  0  0  0  0  0  0  0  0  0
    2.1272   -5.2429   11.0216 C   0  0  0  0  0  0  0  0  0  0  0  0
    1.0692   -4.6514   10.4109 O   0  5  0  0  0  0  0  0  0  0  0  0
    1.9335   -6.0421   12.0341 N   0  0  0  0  0  0  0  0  0  0  0  0
    2.9812   -6.6782   12.7006 N   0  0  0  0  0  0  0  0  0  0  0  0
    2.7792   -7.2626   13.4480 H   0  0  0  0  0  0  0  0  0  0  0  0
    4.2666   -6.5114   12.3268 C   0  0  0  0  0  0  0  0  0  0  0  0
    5.1645   -7.0782   12.9245 O   0  0  0  0  0  0  0  0  0  0  0  0
    1.0286    1.9005   -0.0035 H   0  0  0  0  0  0  0  0  0  0  0  0
   -0.5235    1.8960   -0.8750 H   0  0  0  0  0  0  0  0  0  0  0  0
   -0.5021    1.8897    0.9049 H   0  0  0  0  0  0  0  0  0  0  0  0
   -1.0155   -0.3663    0.0130 H   0  0  0  0  0  0  0  0  0  0  0  0
    1.7448   -0.1314   -1.2687 H   0  0  0  0  0  0  0  0  0  0  0  0
    0.7243   -1.5898   -1.2616 H   0  0  0  0  0  0  0  0  0  0  0  0
    0.1927   -0.1359   -2.1401 H   0  0  0  0  0  0  0  0  0  0  0  0
   -0.5124   -0.7540    2.8806 H   0  0  0  0  0  0  0  0  0  0  0  0
   -0.4680   -2.1389    1.7491 H   0  0  0  0  0  0  0  0  0  0  0  0
    2.4176   -0.1646    3.5859 H   0  0  0  0  0  0  0  0  0  0  0  0
    3.3789   -1.3595    2.6597 H   0  0  0  0  0  0  0  0  0  0  0  0
    2.7578   -2.8617    4.9869 H   0  0  0  0  0  0  0  0  0  0  0  0
    1.3447   -1.7205    7.1496 H   0  0  0  0  0  0  0  0  0  0  0  0
    0.7059   -3.3570    6.8633 H   0  0  0  0  0  0  0  0  0  0  0  0
    1.9061   -3.2107    9.2985 H   0  0  0  0  0  0  0  0  0  0  0  0
    5.2478   -3.2622    8.2210 H   0  0  0  0  0  0  0  0  0  0  0  0
    7.1137   -4.3663    9.3725 H   0  0  0  0  0  0  0  0  0  0  0  0
    6.7004   -5.8700   11.2681 H   0  0  0  0  0  0  0  0  0  0  0  0
  1  2  1  0  0  0  0
  1 31  1  0  0  0  0
  1 32  1  0  0  0  0
  1 33  1  0  0  0  0
  2  3  1  0  0  0  0
  2  4  1  0  0  0  0
  2 34  1  0  0  0  0
  3 35  1  0  0  0  0
  3 36  1  0  0  0  0
  3 37  1  0  0  0  0
  4  9  1  0  0  0  0
  4  5  1  0  0  0  0
  5  6  1  0  0  0  0
  5 38  1  0  0  0  0
  5 39  1  0  0  0  0
  6  7  1  6  0  0  0
  6  8  1  0  0  0  0
  6 11  1  0  0  0  0
  8  9  1  0  0  0  0
  8 40  1  0  0  0  0
  8 41  1  0  0  0  0
  9 10  2  0  0  0  0
 11 12  2  0  0  0  0
 11 13  1  0  0  0  0
 13 14  1  0  0  0  0
 13 42  1  0  0  0  0
 14 15  1  0  0  0  0
 14 43  1  0  0  0  0
 14 44  1  0  0  0  0
 15 16  2  0  0  0  0
 15 17  1  0  0  0  0
 17 18  1  0  0  0  0
 17 45  1  0  0  0  0
 18 23  2  0  0  0  0
 18 19  1  0  0  0  0
 19 20  2  0  0  0  0
 19 46  1  0  0  0  0
 20 21  1  0  0  0  0
 20 47  1  0  0  0  0
 21 22  2  0  0  0  0
 21 48  1  0  0  0  0
 22 29  1  0  0  0  0
 22 23  1  0  0  0  0
 23 24  1  0  0  0  0
 24 25  1  0  0  0  0
 24 26  2  0  0  0  0
 26 27  1  0  0  0  0
 27 28  1  0  0  0  0
 27 29  1  0  0  0  0
 29 30  2  0  0  0  0
M  CHG  1  25  -1
M  END
$$$$
ZINC16459610
 OpenBabel01252620473D

 62 64  0  0  1  0  0  0  0  0999 V2000
    2.2784    2.3334   -4.4623 C   0  0  0  0  0  0  0  0  0  0  0  0
    3.6210    2.0834   -4.0416 O   0  0  0  0  0  0  0  0  0  0  0  0
    3.7994    0.8280   -3.3828 C   0  0  0  0  0  0  0  0  0  0  0  0
    5.2664    0.6679   -2.9789 C   0  0  0  0  0  0  0  0  0  0  0  0
    5.6114    1.6823   -1.9798 N   0  0  0  0  0  0  0  0  0  0  0  0
    5.4418    1.3932   -0.5536 C   0  0  0  0  0  0  0  0  0  0  0  0
    4.0570    1.7996   -0.1199 C   0  0  0  0  0  0  0  0  0  0  0  0
    2.9619    1.0848   -0.1105 N   0  0  0  0  0  0  0  0  0  0  0  0
    1.8170    1.6255    0.3092 C   0  0  0  0  0  0  0  0  0  0  0  0
    1.8487    2.9306    0.7301 C   0  0  0  0  0  0  0  0  0  0  0  0
    3.5214    3.3289    0.4976 S   0  0  0  0  0  0  0  0  0  0  0  0
    0.5664    0.8480    0.3257 C   0  0  0  0  0  0  0  0  0  0  0  0
   -0.4651    1.3636    0.7126 O   0  0  0  0  0  0  0  0  0  0  0  0
    0.5637   -0.4330   -0.0931 N   0  0  0  0  0  0  0  0  0  0  0  0
   -0.6805   -1.2064   -0.0766 C   0  0  1  0  0  0  0  0  0  0  0  0
   -1.5026   -0.5851   -0.4319 H   0  0  0  0  0  0  0  0  0  0  0  0
   -0.5353   -2.4333   -0.9802 C   0  0  0  0  0  0  0  0  0  0  0  0
    0.8820   -2.9743   -0.9287 C   0  0  0  0  0  0  0  0  0  0  0  0
    1.2677   -3.5545    0.4198 C   0  0  0  0  0  0  0  0  0  0  0  0
    1.3357   -2.4590    1.4855 C   0  0  0  0  0  0  0  0  0  0  0  0
   -0.0096   -2.2680    2.0512 N   0  0  0  0  0  0  0  0  0  0  0  0
   -0.9696   -1.6750    1.3340 C   0  0  0  0  0  0  0  0  0  0  0  0
   -2.0742   -1.5165    1.8091 O   0  0  0  0  0  0  0  0  0  0  0  0
    6.0847    2.8815   -2.3727 C   0  0  0  0  0  0  0  0  0  0  0  0
    6.3709    3.7235   -1.5434 O   0  0  0  0  0  0  0  0  0  0  0  0
    6.2406    3.1475   -3.6847 N   0  0  0  0  0  0  0  0  0  0  0  0
    6.8273    4.3540   -4.0902 C   0  0  0  0  0  0  0  0  0  0  0  0
    6.5985    5.5157   -3.3652 C   0  0  0  0  0  0  0  0  0  0  0  0
    7.1815    6.7030   -3.7621 C   0  0  0  0  0  0  0  0  0  0  0  0
    7.9863    6.7374   -4.8913 C   0  0  0  0  0  0  0  0  0  0  0  0
    8.2108    5.5782   -5.6194 C   0  0  0  0  0  0  0  0  0  0  0  0
    7.6330    4.3891   -5.2203 C   0  0  0  0  0  0  0  0  0  0  0  0
    8.5559    7.9078   -5.2845 O   0  0  0  0  0  0  0  0  0  0  0  0
    8.2821    9.0623   -4.4881 C   0  0  0  0  0  0  0  0  0  0  0  0
    2.2265    3.3053   -4.9532 H   0  0  0  0  0  0  0  0  0  0  0  0
    1.9658    1.5567   -5.1602 H   0  0  0  0  0  0  0  0  0  0  0  0
    1.6190    2.3291   -3.5944 H   0  0  0  0  0  0  0  0  0  0  0  0
    3.5183    0.0200   -4.0582 H   0  0  0  0  0  0  0  0  0  0  0  0
    3.1715    0.7923   -2.4925 H   0  0  0  0  0  0  0  0  0  0  0  0
    5.9006    0.7921   -3.8567 H   0  0  0  0  0  0  0  0  0  0  0  0
    5.4208   -0.3251   -2.5567 H   0  0  0  0  0  0  0  0  0  0  0  0
    6.1810    1.9517    0.0207 H   0  0  0  0  0  0  0  0  0  0  0  0
    5.5781    0.3257   -0.3806 H   0  0  0  0  0  0  0  0  0  0  0  0
    1.0455    3.5469    1.1061 H   0  0  0  0  0  0  0  0  0  0  0  0
    1.3855   -0.8429   -0.4053 H   0  0  0  0  0  0  0  0  0  0  0  0
   -1.2272   -3.2073   -0.6482 H   0  0  0  0  0  0  0  0  0  0  0  0
   -0.7757   -2.1539   -2.0060 H   0  0  0  0  0  0  0  0  0  0  0  0
    0.9850   -3.7527   -1.6847 H   0  0  0  0  0  0  0  0  0  0  0  0
    1.5720   -2.1658   -1.1698 H   0  0  0  0  0  0  0  0  0  0  0  0
    0.5265   -4.2969    0.7157 H   0  0  0  0  0  0  0  0  0  0  0  0
    2.2428   -4.0347    0.3376 H   0  0  0  0  0  0  0  0  0  0  0  0
    2.0252   -2.7589    2.2747 H   0  0  0  0  0  0  0  0  0  0  0  0
    1.6774   -1.5285    1.0322 H   0  0  0  0  0  0  0  0  0  0  0  0
   -0.2012   -2.5722    2.9521 H   0  0  0  0  0  0  0  0  0  0  0  0
    5.9469    2.5039   -4.3483 H   0  0  0  0  0  0  0  0  0  0  0  0
    5.9679    5.4900   -2.4888 H   0  0  0  0  0  0  0  0  0  0  0  0
    7.0074    7.6058   -3.1954 H   0  0  0  0  0  0  0  0  0  0  0  0
    8.8372    5.6057   -6.4987 H   0  0  0  0  0  0  0  0  0  0  0  0
    7.8080    3.4865   -5.7871 H   0  0  0  0  0  0  0  0  0  0  0  0
    8.7960    9.9256   -4.9109 H   0  0  0  0  0  0  0  0  0  0  0  0
    7.2083    9.2488   -4.4757 H   0  0  0  0  0  0  0  0  0  0  0  0
    8.6333    8.8931   -3.4701 H   0  0  0  0  0  0  0  0  0  0  0  0
  1  2  1  0  0  0  0
  1 35  1  0  0  0  0
  1 36  1  0  0  0  0
  1 37  1  0  0  0  0
  2  3  1  0  0  0  0
  3  4  1  0  0  0  0
  3 38  1  0  0  0  0
  3 39  1  0  0  0  0
  4  5  1  0  0  0  0
  4 40  1  0  0  0  0
  4 41  1  0  0  0  0
  5  6  1  0  0  0  0
  5 24  1  0  0  0  0
  6  7  1  0  0  0  0
  6 42  1  0  0  0  0
  6 43  1  0  0  0  0
  7 11  1  0  0  0  0
  7  8  2  0  0  0  0
  8  9  1  0  0  0  0
  9 10  2  0  0  0  0
  9 12  1  0  0  0  0
 10 11  1  0  0  0  0
 10 44  1  0  0  0  0
 12 13  2  0  0  0  0
 12 14  1  0  0  0  0
 14 15  1  0  0  0  0
 14 45  1  0  0  0  0
 15 16  1  6  0  0  0
 15 22  1  0  0  0  0
 15 17  1  0  0  0  0
 17 18  1  0  0  0  0
 17 46  1  0  0  0  0
 17 47  1  0  0  0  0
 18 19  1  0  0  0  0
 18 48  1  0  0  0  0
 18 49  1  0  0  0  0
 19 20  1  0  0  0  0
 19 50  1  0  0  0  0
 19 51  1  0  0  0  0
 20 21  1  0  0  0  0
 20 52  1  0  0  0  0
 20 53  1  0  0  0  0
 21 22  1  0  0  0  0
 21 54  1  0  0  0  0
 22 23  2  0  0  0  0
 24 25  2  0  0  0  0
 24 26  1  0  0  0  0
 26 27  1  0  0  0  0
 26 55  1  0  0  0  0
 27 32  2  0  0  0  0
 27 28  1  0  0  0  0
 28 29  2  0  0  0  0
 28 56  1  0  0  0  0
 29 30  1  0  0  0  0
 29 57  1  0  0  0  0
 30 31  2  0  0  0  0
 30 33  1  0  0  0  0
 31 32  1  0  0  0  0
 31 58  1  0  0  0  0
 32 59  1  0  0  0  0
 33 34  1  0  0  0  0
 34 60  1  0  0  0  0
 34 61  1  0  0  0  0
 34 62  1  0  0  0  0
M  END
$$$$
ZINC62986308
 OpenBabel01252620473D

 36 37  0  0  1  0  0  0  0  0999 V2000
   -1.4508   -0.8877   -1.3655 C   0  0  0  0  0  0  0  0  0  0  0  0
   -0.1648   -1.0264   -0.5921 C   0  0  0  0  0  0  0  0  0  0  0  0
    0.9866   -0.4675   -1.0637 C   0  0  0  0  0  0  0  0  0  0  0  0
    2.1700   -0.6101   -0.3256 C   0  0  0  0  0  0  0  0  0  0  0  0
    2.1602   -1.2966    0.8409 C   0  0  0  0  0  0  0  0  0  0  0  0
    1.0132   -1.8522    1.3086 N   0  0  0  0  0  0  0  0  0  0  0  0
   -0.1405   -1.7281    0.6253 C   0  0  0  0  0  0  0  0  0  0  0  0
   -1.1647   -2.2289    1.0613 O   0  0  0  0  0  0  0  0  0  0  0  0
    1.0296   -2.5903    2.5740 C   0  0  2  0  0  0  0  0  0  0  0  0
    2.4765   -2.7888    3.0299 C   0  0  0  0  0  0  0  0  0  0  0  0
    3.2419   -3.5805    1.9678 C   0  0  0  0  0  0  0  0  0  0  0  0
    2.5774   -4.9446    1.7712 C   0  0  0  0  0  0  0  0  0  0  0  0
    1.1305   -4.7461    1.3152 C   0  0  1  0  0  0  0  0  0  0  0  0
    0.6571   -5.7179    1.1752 H   0  0  0  0  0  0  0  0  0  0  0  0
    0.3651   -3.9544    2.3774 C   0  0  0  0  0  0  0  0  0  0  0  0
    1.1134   -3.9753   -0.0063 C   0  0  0  0  0  0  0  0  0  0  0  0
    0.2757   -1.8104    3.6202 C   0  0  0  0  0  0  0  0  0  0  0  0
   -0.2285   -0.7375    3.3352 O   0  0  0  0  0  0  0  0  0  0  0  0
    0.1700   -2.2524    4.7516 O   0  0  0  0  0  1  0  0  0  0  0  0
   -1.9709    0.0155   -1.0465 H   0  0  0  0  0  0  0  0  0  0  0  0
   -1.2289   -0.8222   -2.4307 H   0  0  0  0  0  0  0  0  0  0  0  0
   -2.0826   -1.7561   -1.1786 H   0  0  0  0  0  0  0  0  0  0  0  0
    0.9868    0.0786   -1.9954 H   0  0  0  0  0  0  0  0  0  0  0  0
    3.0888   -0.1728   -0.6876 H   0  0  0  0  0  0  0  0  0  0  0  0
    3.0747   -1.4037    1.4054 H   0  0  0  0  0  0  0  0  0  0  0  0
    2.9499   -1.8170    3.1700 H   0  0  0  0  0  0  0  0  0  0  0  0
    2.4887   -3.3379    3.9714 H   0  0  0  0  0  0  0  0  0  0  0  0
    3.2297   -3.0314    1.0263 H   0  0  0  0  0  0  0  0  0  0  0  0
    4.2727   -3.7219    2.2926 H   0  0  0  0  0  0  0  0  0  0  0  0
    3.1227   -5.5087    1.0144 H   0  0  0  0  0  0  0  0  0  0  0  0
    2.5896   -5.4938    2.7126 H   0  0  0  0  0  0  0  0  0  0  0  0
    0.3773   -4.5035    3.3189 H   0  0  0  0  0  0  0  0  0  0  0  0
   -0.6657   -3.8130    2.0526 H   0  0  0  0  0  0  0  0  0  0  0  0
    1.4700   -4.6214   -0.8084 H   0  0  0  0  0  0  0  0  0  0  0  0
    0.0957   -3.6522   -0.2253 H   0  0  0  0  0  0  0  0  0  0  0  0
    1.7623   -3.1031    0.0734 H   0  0  0  0  0  0  0  0  0  0  0  0
  1  2  1  0  0  0  0
  1 20  1  0  0  0  0
  1 21  1  0  0  0  0
  1 22  1  0  0  0  0
  2  7  1  0  0  0  0
  2  3  2  0  0  0  0
  3  4  1  0  0  0  0
  3 23  1  0  0  0  0
  4  5  2  0  0  0  0
  4 24  1  0  0  0  0
  5  6  1  0  0  0  0
  5 25  1  0  0  0  0
  6  7  1  0  0  0  0
  6  9  1  0  0  0  0
  7  8  2  0  0  0  0
  9 15  1  0  0  0  0
  9 10  1  0  0  0  0
  9 17  1  1  0  0  0
 10 11  1  0  0  0  0
 10 26  1  0  0  0  0
 10 27  1  0  0  0  0
 11 12  1  0  0  0  0
 11 28  1  0  0  0  0
 11 29  1  0  0  0  0
 12 13  1  0  0  0  0
 12 30  1  0  0  0  0
 12 31  1  0  0  0  0
 13 14  1  6  0  0  0
 13 15  1  0  0  0  0
 13 16  1  0  0  0  0
 15 32  1  0  0  0  0
 15 33  1  0  0  0  0
 16 34  1  0  0  0  0
 16 35  1  0  0  0  0
 16 36  1  0  0  0  0
 17 18  2  0  0  0  0
 17 19  1  0  0  0  0
M  END
$$$$
ZINC13316910
 OpenBabel01252620473D

 39 40  0  0  1  0  0  0  0  0999 V2000
   -3.1015    2.7774   -2.5667 C   0  0  0  0  0  0  0  0  0  0  0  0
   -2.5262    1.3910   -2.8632 C   0  0  1  0  0  0  0  0  0  0  0  0
   -1.8411    1.4552   -3.7086 H   0  0  0  0  0  0  0  0  0  0  0  0
   -1.7844    0.8855   -1.6527 C   0  0  0  0  0  0  0  0  0  0  0  0
   -2.1328   -0.1438   -1.1141 O   0  0  0  0  0  0  0  0  0  0  0  0
   -0.7338    1.5772   -1.1687 N   0  0  0  0  0  0  0  0  0  0  0  0
   -0.0127    1.0858    0.0080 C   0  0  2  0  0  0  0  0  0  0  0  0
    0.0021   -0.0041    0.0020 H   0  0  0  0  0  0  0  0  0  0  0  0
   -0.7026    1.5888    1.2869 C   0  0  0  0  0  0  0  0  0  0  0  0
    0.2160    1.3524    2.5099 C   0  0  0  0  0  0  0  0  0  0  0  0
    1.8984    1.4145    1.7695 S   0  0  0  0  0  0  0  0  0  0  0  0
    2.5234    0.1492    1.9352 O   0  0  0  0  0  0  0  0  0  0  0  0
    2.5612    2.5866    2.2233 O   0  0  0  0  0  0  0  0  0  0  0  0
    1.4440    1.6310   -0.0030 C   0  0  0  0  0  0  0  0  0  0  0  0
   -3.6173    0.4688   -3.1877 N   0  0  0  0  0  0  0  0  0  0  0  0
   -4.5859    0.2341   -2.2710 C   0  0  0  0  0  0  0  0  0  0  0  0
   -5.6167   -0.6093   -2.5356 C   0  0  0  0  0  0  0  0  0  0  0  0
   -5.6884   -1.2630   -3.7652 C   0  0  0  0  0  0  0  0  0  0  0  0
   -4.6917   -1.0308   -4.7121 C   0  0  0  0  0  0  0  0  0  0  0  0
   -3.6378   -0.1360   -4.3906 C   0  0  0  0  0  0  0  0  0  0  0  0
   -2.7540    0.0839   -5.2006 O   0  0  0  0  0  0  0  0  0  0  0  0
   -4.7319   -1.6999   -6.0194 C   0  0  0  0  0  0  0  0  0  0  0  0
   -5.6397   -2.4643   -6.2834 O   0  0  0  0  0  0  0  0  0  0  0  0
   -6.6629   -0.8403   -1.5143 N   0  0  0  0  0  4  0  0  0  0  0  0
   -6.6015   -0.2700   -0.4398 O   0  0  0  0  0  0  0  0  0  0  0  0
   -7.5852   -1.6006   -1.7484 O   0  5  0  0  0  0  0  0  0  0  0  0
   -2.2897    3.4636   -2.3252 H   0  0  0  0  0  0  0  0  0  0  0  0
   -3.6380    3.1430   -3.4422 H   0  0  0  0  0  0  0  0  0  0  0  0
   -3.7865    2.7133   -1.7213 H   0  0  0  0  0  0  0  0  0  0  0  0
   -0.4552    2.4004   -1.5995 H   0  0  0  0  0  0  0  0  0  0  0  0
   -0.9101    2.6546    1.1909 H   0  0  0  0  0  0  0  0  0  0  0  0
   -1.6395    1.0501    1.4285 H   0  0  0  0  0  0  0  0  0  0  0  0
    0.0249    0.3753    2.9537 H   0  0  0  0  0  0  0  0  0  0  0  0
    0.0900    2.1426    3.2500 H   0  0  0  0  0  0  0  0  0  0  0  0
    2.0844    1.0316   -0.6501 H   0  0  0  0  0  0  0  0  0  0  0  0
    1.4694    2.6820   -0.2908 H   0  0  0  0  0  0  0  0  0  0  0  0
   -4.5400    0.7303   -1.3128 H   0  0  0  0  0  0  0  0  0  0  0  0
   -6.5033   -1.9382   -3.9808 H   0  0  0  0  0  0  0  0  0  0  0  0
   -3.7620   -1.4663   -6.9264 O   0  0  0  0  0  1  0  0  0  0  0  0
  1  2  1  0  0  0  0
  1 27  1  0  0  0  0
  1 28  1  0  0  0  0
  1 29  1  0  0  0  0
  2  3  1  6  0  0  0
  2  4  1  0  0  0  0
  2 15  1  0  0  0  0
  4  5  2  0  0  0  0
  4  6  1  0  0  0  0
  6  7  1  0  0  0  0
  6 30  1  0  0  0  0
  7  8  1  6  0  0  0
  7 14  1  0  0  0  0
  7  9  1  0  0  0  0
  9 10  1  0  0  0  0
  9 31  1  0  0  0  0
  9 32  1  0  0  0  0
 10 11  1  0  0  0  0
 10 33  1  0  0  0  0
 10 34  1  0  0  0  0
 11 12  2  0  0  0  0
 11 13  2  0  0  0  0
 11 14  1  0  0  0  0
 14 35  1  0  0  0  0
 14 36  1  0  0  0  0
 15 20  1  0  0  0  0
 15 16  1  0  0  0  0
 16 17  2  0  0  0  0
 16 37  1  0  0  0  0
 17 18  1  0  0  0  0
 17 24  1  0  0  0  0
 18 19  2  0  0  0  0
 18 38  1  0  0  0  0
 19 20  1  0  0  0  0
 19 22  1  0  0  0  0
 20 21  2  0  0  0  0
 22 23  2  0  0  0  0
 22 39  1  0  0  0  0
 24 25  2  0  0  0  0
 24 26  1  0  0  0  0
M  CHG  1  26  -1
M  END
$$$$
ZINC13535788
 OpenBabel01252620473D

 42 44  0  0  0  0  0  0  0  0999 V2000
    0.1298    0.4378    3.3229 C   0  0  0  0  0  0  0  0  0  0  0  0
    0.9528    1.4810    2.9241 C   0  0  0  0  0  0  0  0  0  0  0  0
    1.8592    1.3062    1.8972 C   0  0  0  0  0  0  0  0  0  0  0  0
    1.9547    0.0819    1.2538 C   0  0  0  0  0  0  0  0  0  0  0  0
    1.1221   -0.9813    1.6538 C   0  0  0  0  0  0  0  0  0  0  0  0
    0.2062   -0.7860    2.6997 C   0  0  0  0  0  0  0  0  0  0  0  0
    1.2079   -2.2390    1.0049 C   0  0  0  0  0  0  0  0  0  0  0  0
    0.0535   -2.8888    0.5974 C   0  0  0  0  0  0  0  0  0  0  0  0
    0.0832   -4.2774    0.1118 C   0  0  0  0  0  0  0  0  0  0  0  0
    1.2443   -4.9623    0.0497 O   0  5  0  0  0  0  0  0  0  0  0  0
   -1.0539   -4.8387   -0.2618 N   0  0  0  0  0  0  0  0  0  0  0  0
   -2.2136   -4.1879   -0.2110 C   0  0  0  0  0  0  0  0  0  0  0  0
   -3.2187   -4.7738   -0.5724 O   0  0  0  0  0  0  0  0  0  0  0  0
   -2.3370   -2.9229    0.2166 N   0  0  0  0  0  0  0  0  0  0  0  0
   -1.2626   -2.2210    0.6368 C   0  0  0  0  0  0  0  0  0  0  0  0
   -1.3748   -1.0751    1.0302 O   0  0  0  0  0  0  0  0  0  0  0  0
   -3.6025   -2.3216    0.2336 C   0  0  0  0  0  0  0  0  0  0  0  0
   -4.0699   -1.6523   -0.8898 C   0  0  0  0  0  0  0  0  0  0  0  0
   -5.3175   -1.0607   -0.8699 C   0  0  0  0  0  0  0  0  0  0  0  0
   -6.1013   -1.1343    0.2672 C   0  0  0  0  0  0  0  0  0  0  0  0
   -5.6387   -1.8000    1.3871 C   0  0  0  0  0  0  0  0  0  0  0  0
   -4.3939   -2.3987    1.3715 C   0  0  0  0  0  0  0  0  0  0  0  0
   -6.4960   -1.8778    2.6241 C   0  0  0  0  0  0  0  0  0  0  0  0
   -7.7032   -1.2081    2.3978 F   0  0  0  0  0  0  0  0  0  0  0  0
   -6.7562   -3.2185    2.9276 F   0  0  0  0  0  0  0  0  0  0  0  0
   -5.8243   -1.2791    3.6954 F   0  0  0  0  0  0  0  0  0  0  0  0
    2.8438   -0.0907    0.2452 O   0  0  0  0  0  0  0  0  0  0  0  0
    3.6539    1.0332   -0.1049 C   0  0  0  0  0  0  0  0  0  0  0  0
    4.5743    0.6558   -1.2370 C   0  0  0  0  0  0  0  0  0  0  0  0
    4.5397   -0.4712   -1.7010 O   0  0  0  0  0  0  0  0  0  0  0  0
    5.3535    1.4774   -1.6890 O   0  0  0  0  0  1  0  0  0  0  0  0
   -0.5719    0.5861    4.1304 H   0  0  0  0  0  0  0  0  0  0  0  0
    0.8837    2.4377    3.4205 H   0  0  0  0  0  0  0  0  0  0  0  0
    2.4950    2.1251    1.5943 H   0  0  0  0  0  0  0  0  0  0  0  0
   -0.4368   -1.5947    3.0142 H   0  0  0  0  0  0  0  0  0  0  0  0
    2.1728   -2.6907    0.8281 H   0  0  0  0  0  0  0  0  0  0  0  0
   -3.4581   -1.5942   -1.7779 H   0  0  0  0  0  0  0  0  0  0  0  0
   -5.6814   -0.5397   -1.7432 H   0  0  0  0  0  0  0  0  0  0  0  0
   -7.0766   -0.6705    0.2804 H   0  0  0  0  0  0  0  0  0  0  0  0
   -4.0351   -2.9227    2.2450 H   0  0  0  0  0  0  0  0  0  0  0  0
    3.0144    1.8590   -0.4165 H   0  0  0  0  0  0  0  0  0  0  0  0
    4.2457    1.3376    0.7583 H   0  0  0  0  0  0  0  0  0  0  0  0
  1  6  2  0  0  0  0
  1  2  1  0  0  0  0
  1 32  1  0  0  0  0
  2  3  2  0  0  0  0
  2 33  1  0  0  0  0
  3  4  1  0  0  0  0
  3 34  1  0  0  0  0
  4  5  2  0  0  0  0
  4 27  1  0  0  0  0
  5  6  1  0  0  0  0
  5  7  1  0  0  0  0
  6 35  1  0  0  0  0
  7  8  2  0  0  0  0
  7 36  1  0  0  0  0
  8 15  1  0  0  0  0
  8  9  1  0  0  0  0
  9 10  1  0  0  0  0
  9 11  2  0  0  0  0
 11 12  1  0  0  0  0
 12 13  2  0  0  0  0
 12 14  1  0  0  0  0
 14 15  1  0  0  0  0
 14 17  1  0  0  0  0
 15 16  2  0  0  0  0
 17 22  2  0  0  0  0
 17 18  1  0  0  0  0
 18 19  2  0  0  0  0
 18 37  1  0  0  0  0
 19 20  1  0  0  0  0
 19 38  1  0  0  0  0
 20 21  2  0  0  0  0
 20 39  1  0  0  0  0
 21 22  1  0  0  0  0
 21 23  1  0  0  0  0
 22 40  1  0  0  0  0
 23 24  1  0  0  0  0
 23 25  1  0  0  0  0
 23 26  1  0  0  0  0
 27 28  1  0  0  0  0
 28 29  1  0  0  0  0
 28 41  1  0  0  0  0
 28 42  1  0  0  0  0
 29 30  2  0  0  0  0
 29 31  1  0  0  0  0
M  CHG  1  10  -1
M  END
$$$$
ZINC49064103
 OpenBabel01252620473D

 33 33  0  0  0  0  0  0  0  0999 V2000
   -0.0187    1.5258    0.0104 C   0  0  0  0  0  0  0  0  0  0  0  0
    0.0021   -0.0041    0.0020 C   0  0  0  0  0  0  0  0  0  0  0  0
    0.6709   -0.4649   -1.1737 O   0  0  0  0  0  0  0  0  0  0  0  0
    0.7755   -1.7935   -1.3341 C   0  0  0  0  0  0  0  0  0  0  0  0
    0.3143   -2.5404   -0.5039 O   0  0  0  0  0  0  0  0  0  0  0  0
    1.4679   -2.3535   -2.5498 C   0  0  0  0  0  0  0  0  0  0  0  0
    1.4493   -3.8821   -2.4885 C   0  0  0  0  0  0  0  0  0  0  0  0
    2.2829   -4.5562   -3.9519 S   0  0  0  0  0  0  0  0  0  0  0  0
    1.5214   -4.2802   -5.1195 O   0  0  0  0  0  0  0  0  0  0  0  0
    3.6714   -4.2577   -3.9052 O   0  0  0  0  0  0  0  0  0  0  0  0
    2.1977   -6.2000   -3.7707 N   0  0  0  0  0  2  0  0  0  0  0  0
    2.7497   -7.0334   -4.7326 C   0  0  0  0  0  0  0  0  0  0  0  0
    3.3796   -6.4929   -5.8462 C   0  0  0  0  0  0  0  0  0  0  0  0
    3.9282   -7.3224   -6.8032 C   0  0  0  0  0  0  0  0  0  0  0  0
    3.8574   -8.6989   -6.6649 C   0  0  0  0  0  0  0  0  0  0  0  0
    3.2362   -9.2585   -5.5666 C   0  0  0  0  0  0  0  0  0  0  0  0
    2.6796   -8.4295   -4.5825 C   0  0  0  0  0  0  0  0  0  0  0  0
    2.0219   -9.0151   -3.4072 C   0  0  0  0  0  0  0  0  0  0  0  0
    1.5323   -8.2872   -2.5539 O   0  0  0  0  0  0  0  0  0  0  0  0
    1.9634  -10.2310   -3.2811 O   0  0  0  0  0  1  0  0  0  0  0  0
    3.1695  -10.6016   -5.4376 F   0  0  0  0  0  0  0  0  0  0  0  0
    1.0039    1.9031    0.0027 H   0  0  0  0  0  0  0  0  0  0  0  0
   -0.5459    1.8868   -0.8726 H   0  0  0  0  0  0  0  0  0  0  0  0
   -0.5289    1.8773    0.9072 H   0  0  0  0  0  0  0  0  0  0  0  0
    0.5293   -0.3651    0.8851 H   0  0  0  0  0  0  0  0  0  0  0  0
   -1.0205   -0.3814    0.0098 H   0  0  0  0  0  0  0  0  0  0  0  0
    0.9501   -2.0196   -3.4490 H   0  0  0  0  0  0  0  0  0  0  0  0
    2.4999   -2.0034   -2.5737 H   0  0  0  0  0  0  0  0  0  0  0  0
    1.9671   -4.2160   -1.5894 H   0  0  0  0  0  0  0  0  0  0  0  0
    0.4173   -4.2322   -2.4647 H   0  0  0  0  0  0  0  0  0  0  0  0
    3.4400   -5.4210   -5.9638 H   0  0  0  0  0  0  0  0  0  0  0  0
    4.4162   -6.8951   -7.6667 H   0  0  0  0  0  0  0  0  0  0  0  0
    4.2901   -9.3377   -7.4207 H   0  0  0  0  0  0  0  0  0  0  0  0
  1  2  1  0  0  0  0
  1 22  1  0  0  0  0
  1 23  1  0  0  0  0
  1 24  1  0  0  0  0
  2  3  1  0  0  0  0
  2 25  1  0  0  0  0
  2 26  1  0  0  0  0
  3  4  1  0  0  0  0
  4  5  2  0  0  0  0
  4  6  1  0  0  0  0
  6  7  1  0  0  0  0
  6 27  1  0  0  0  0
  6 28  1  0  0  0  0
  7  8  1  0  0  0  0
  7 29  1  0  0  0  0
  7 30  1  0  0  0  0
  8  9  2  0  0  0  0
  8 10  2  0  0  0  0
  8 11  1  0  0  0  0
 11 12  1  0  0  0  0
 12 17  2  0  0  0  0
 12 13  1  0  0  0  0
 13 14  2  0  0  0  0
 13 31  1  0  0  0  0
 14 15  1  0  0  0  0
 14 32  1  0  0  0  0
 15 16  2  0  0  0  0
 15 33  1  0  0  0  0
 16 17  1  0  0  0  0
 16 21  1  0  0  0  0
 17 18  1  0  0  0  0
 18 19  2  0  0  0  0
 18 20  1  0  0  0  0
M  END
$$$$
ZINC49417988
 OpenBabel01252620473D

 27 27  0  0  0  0  0  0  0  0999 V2000
   -0.0184    1.5028    0.0103 C   0  0  0  0  0  0  0  0  0  0  0  0
    0.0021   -0.0041    0.0020 C   0  0  0  0  0  0  0  0  0  0  0  0
   -1.0918   -0.8155    0.0026 C   0  0  0  0  0  0  0  0  0  0  0  0
   -0.5678   -2.1880   -0.0081 C   0  0  0  0  0  0  0  0  0  0  0  0
    0.7697   -2.0729   -0.0141 C   0  0  0  0  0  0  0  0  0  0  0  0
    1.0979   -0.7717   -0.0130 O   0  0  0  0  0  0  0  0  0  0  0  0
   -2.5097   -0.4018    0.0129 C   0  0  0  0  0  0  0  0  0  0  0  0
   -3.4870   -1.3367    0.0120 O   0  5  0  0  0  0  0  0  0  0  0  0
   -2.8186    0.8627    0.0227 N   0  0  0  0  0  0  0  0  0  0  0  0
   -4.4083    1.3265    0.0341 S   0  0  0  0  0  0  0  0  0  0  0  0
   -4.9318    0.8573   -1.2008 O   0  0  0  0  0  0  0  0  0  0  0  0
   -4.9187    0.8414    1.2684 O   0  0  0  0  0  0  0  0  0  0  0  0
   -4.3647    3.1400    0.0456 C   0  0  0  0  0  0  0  0  0  0  0  0
   -3.6381    3.6405   -1.2044 C   0  0  0  0  0  0  0  0  0  0  0  0
   -5.7945    3.6844    0.0567 C   0  0  0  0  0  0  0  0  0  0  0  0
    1.0042    1.8801    0.0026 H   0  0  0  0  0  0  0  0  0  0  0  0
   -0.5455    1.8639   -0.8728 H   0  0  0  0  0  0  0  0  0  0  0  0
   -0.5286    1.8543    0.9071 H   0  0  0  0  0  0  0  0  0  0  0  0
   -1.1416   -3.1030   -0.0102 H   0  0  0  0  0  0  0  0  0  0  0  0
    1.4694   -2.8956   -0.0220 H   0  0  0  0  0  0  0  0  0  0  0  0
   -3.8375    3.4851    0.9350 H   0  0  0  0  0  0  0  0  0  0  0  0
   -3.6119    4.7302   -1.1975 H   0  0  0  0  0  0  0  0  0  0  0  0
   -2.6194    3.2526   -1.2123 H   0  0  0  0  0  0  0  0  0  0  0  0
   -4.1652    3.2954   -2.0938 H   0  0  0  0  0  0  0  0  0  0  0  0
   -6.3121    3.3278    0.9472 H   0  0  0  0  0  0  0  0  0  0  0  0
   -5.7683    4.7741    0.0636 H   0  0  0  0  0  0  0  0  0  0  0  0
   -6.3216    3.3393   -0.8327 H   0  0  0  0  0  0  0  0  0  0  0  0
  1  2  1  0  0  0  0
  1 16  1  0  0  0  0
  1 17  1  0  0  0  0
  1 18  1  0  0  0  0
  2  6  1  0  0  0  0
  2  3  2  0  0  0  0
  3  4  1  0  0  0  0
  3  7  1  0  0  0  0
  4  5  2  0  0  0  0
  4 19  1  0  0  0  0
  5  6  1  0  0  0  0
  5 20  1  0  0  0  0
  7  8  1  0  0  0  0
  7  9  2  0  0  0  0
  9 10  1  0  0  0  0
 10 11  2  0  0  0  0
 10 12  2  0  0  0  0
 10 13  1  0  0  0  0
 13 14  1  0  0  0  0
 13 15  1  0  0  0  0
 13 21  1  0  0  0  0
 14 22  1  0  0  0  0
 14 23  1  0  0  0  0
 14 24  1  0  0  0  0
 15 25  1  0  0  0  0
 15 26  1  0  0  0  0
 15 27  1  0  0  0  0
M  CHG  1   8  -1
M  END
$$$$
ZINC02805518
 OpenBabel01252620473D

 45 48  0  0  1  0  0  0  0  0999 V2000
    1.5104    1.8993    0.8551 C   0  0  0  0  0  0  0  0  0  0  0  0
    0.4656    2.2035    1.8977 C   0  0  0  0  0  0  0  0  0  0  0  0
    0.4802    3.0817    2.8797 N   0  0  0  0  0  0  0  0  0  0  0  0
   -0.4897    3.2179    3.6744 N   0  0  0  0  0  0  0  0  0  0  0  0
   -1.5836    2.4730    3.5764 C   0  0  0  0  0  0  0  0  0  0  0  0
   -1.1463    1.4691    2.1596 S   0  0  0  0  0  0  0  0  0  0  0  0
   -3.0463    2.4717    4.5588 S   0  0  0  0  0  0  0  0  0  0  0  0
   -2.6320    3.7781    5.7411 C   0  0  0  0  0  0  0  0  0  0  0  0
   -3.7720    3.9588    6.7100 C   0  0  0  0  0  0  0  0  0  0  0  0
   -4.5535    5.0055    6.4912 C   0  0  0  0  0  0  0  0  0  0  0  0
   -5.6151    5.2914    7.3651 N   0  0  0  0  0  0  0  0  0  0  0  0
   -6.2586    4.3407    8.3270 C   0  0  2  0  0  0  0  0  0  0  0  0
   -7.0055    3.6593    7.9194 H   0  0  0  0  0  0  0  0  0  0  0  0
   -6.8084    5.5894    9.0081 C   0  0  2  0  0  0  0  0  0  0  0  0
   -7.8951    5.5995    9.0918 H   0  0  0  0  0  0  0  0  0  0  0  0
   -6.2815    6.3687    7.8150 C   0  0  0  0  0  0  0  0  0  0  0  0
   -6.4111    7.5094    7.4237 O   0  0  0  0  0  0  0  0  0  0  0  0
   -6.1355    5.9167   10.2676 N   0  0  0  0  0  0  0  0  0  0  0  0
   -6.7806    6.6320   11.2102 C   0  0  0  0  0  0  0  0  0  0  0  0
   -7.9207    7.0056   11.0154 O   0  0  0  0  0  0  0  0  0  0  0  0
   -6.1012    6.9624   12.4819 C   0  0  0  0  0  0  0  0  0  0  0  0
   -4.7935    6.5282   12.7079 C   0  0  0  0  0  0  0  0  0  0  0  0
   -4.1587    6.8406   13.8896 C   0  0  0  0  0  0  0  0  0  0  0  0
   -4.8272    7.5819   14.8666 C   0  0  0  0  0  0  0  0  0  0  0  0
   -6.1373    8.0112   14.6425 C   0  0  0  0  0  0  0  0  0  0  0  0
   -6.7697    7.7034   13.4584 C   0  0  0  0  0  0  0  0  0  0  0  0
   -4.1692    7.9022   16.0975 C   0  0  0  0  0  0  0  0  0  0  0  0
   -3.6473    8.1562   17.0740 N   0  0  0  0  0  0  0  0  0  0  0  0
   -4.8775    3.5219    9.1937 S   0  0  0  0  0  0  0  0  0  0  0  0
   -3.8701    2.9373    7.7957 C   0  0  0  0  0  0  0  0  0  0  0  0
   -4.3112    5.8711    5.3229 C   0  0  0  0  0  0  0  0  0  0  0  0
   -4.4232    7.0766    5.4263 O   0  0  0  0  0  0  0  0  0  0  0  0
    1.3421    2.5251   -0.0213 H   0  0  0  0  0  0  0  0  0  0  0  0
    1.4441    0.8493    0.5700 H   0  0  0  0  0  0  0  0  0  0  0  0
    2.5005    2.1033    1.2627 H   0  0  0  0  0  0  0  0  0  0  0  0
   -1.7309    3.5008    6.2880 H   0  0  0  0  0  0  0  0  0  0  0  0
   -2.4591    4.7115    5.2053 H   0  0  0  0  0  0  0  0  0  0  0  0
   -5.2256    5.6185   10.4231 H   0  0  0  0  0  0  0  0  0  0  0  0
   -4.2783    5.9513   11.9542 H   0  0  0  0  0  0  0  0  0  0  0  0
   -3.1458    6.5082   14.0627 H   0  0  0  0  0  0  0  0  0  0  0  0
   -6.6545    8.5841   15.3979 H   0  0  0  0  0  0  0  0  0  0  0  0
   -7.7828    8.0350   13.2852 H   0  0  0  0  0  0  0  0  0  0  0  0
   -4.3193    2.0309    7.3898 H   0  0  0  0  0  0  0  0  0  0  0  0
   -2.8675    2.7041    8.1543 H   0  0  0  0  0  0  0  0  0  0  0  0
   -3.9655    5.3255    4.1400 O   0  0  0  0  0  1  0  0  0  0  0  0
  1  2  1  0  0  0  0
  1 33  1  0  0  0  0
  1 34  1  0  0  0  0
  1 35  1  0  0  0  0
  2  6  1  0  0  0  0
  2  3  2  0  0  0  0
  3  4  1  0  0  0  0
  4  5  2  0  0  0  0
  5  6  1  0  0  0  0
  5  7  1  0  0  0  0
  7  8  1  0  0  0  0
  8  9  1  0  0  0  0
  8 36  1  0  0  0  0
  8 37  1  0  0  0  0
  9 30  1  0  0  0  0
  9 10  2  0  0  0  0
 10 11  1  0  0  0  0
 10 31  1  0  0  0  0
 11 16  1  0  0  0  0
 11 12  1  0  0  0  0
 12 13  1  6  0  0  0
 12 14  1  0  0  0  0
 12 29  1  0  0  0  0
 14 15  1  1  0  0  0
 14 16  1  0  0  0  0
 14 18  1  0  0  0  0
 16 17  2  0  0  0  0
 18 19  1  0  0  0  0
 18 38  1  0  0  0  0
 19 20  2  0  0  0  0
 19 21  1  0  0  0  0
 21 26  2  0  0  0  0
 21 22  1  0  0  0  0
 22 23  2  0  0  0  0
 22 39  1  0  0  0  0
 23 24  1  0  0  0  0
 23 40  1  0  0  0  0
 24 25  2  0  0  0  0
 24 27  1  0  0  0  0
 25 26  1  0  0  0  0
 25 41  1  0  0  0  0
 26 42  1  0  0  0  0
 27 28  3  0  0  0  0
 29 30  1  0  0  0  0
 30 43  1  0  0  0  0
 30 44  1  0  0  0  0
 31 32  2  0  0  0  0
 31 45  1  0  0  0  0
M  END
$$$$
ZINC59456342
 OpenBabel01252620473D

 59 61  0  0  1  0  0  0  0  0999 V2000
   -2.4940   -0.7610    0.2004 C   0  0  0  0  0  0  0  0  0  0  0  0
   -0.9654   -0.7063    0.1641 C   0  0  0  0  0  0  0  0  0  0  0  0
   -0.4859   -1.5006   -0.9227 O   0  0  0  0  0  0  0  0  0  0  0  0
    0.8532   -1.6275   -1.0455 C   0  0  0  0  0  0  0  0  0  0  0  0
    1.5901   -1.1524   -0.1999 O   0  0  0  0  0  0  0  0  0  0  0  0
    1.3960   -2.3074   -2.1480 C   0  0  0  0  0  0  0  0  0  0  0  0
    1.4657   -3.6693   -2.1527 C   0  0  0  0  0  0  0  0  0  0  0  0
    2.0087   -4.3288   -3.1735 N   0  0  0  0  0  0  0  0  0  0  0  0
    2.7202   -3.7088   -4.1009 C   0  0  0  0  0  0  0  0  0  0  0  0
    2.9391   -2.3588   -4.0006 N   0  0  0  0  0  2  0  0  0  0  0  0
    1.9042   -1.5384   -3.3463 C   0  0  2  0  0  0  0  0  0  0  0  0
    1.0840   -1.3516   -4.0396 H   0  0  0  0  0  0  0  0  0  0  0  0
    2.5013   -0.2299   -2.8967 C   0  0  0  0  0  0  0  0  0  0  0  0
    3.8554   -0.1428   -2.6344 C   0  0  0  0  0  0  0  0  0  0  0  0
    4.4058    1.0553   -2.2221 C   0  0  0  0  0  0  0  0  0  0  0  0
    3.5997    2.1750   -2.0704 C   0  0  0  0  0  0  0  0  0  0  0  0
    2.2413    2.0902   -2.3329 C   0  0  0  0  0  0  0  0  0  0  0  0
    1.6922    0.8880   -2.7521 C   0  0  0  0  0  0  0  0  0  0  0  0
    0.3618    0.8033   -3.0160 O   0  0  0  0  0  0  0  0  0  0  0  0
   -0.4076    1.9975   -2.8612 C   0  0  0  0  0  0  0  0  0  0  0  0
    4.1417    3.3532   -1.6644 O   0  0  0  0  0  0  0  0  0  0  0  0
    5.5481    3.3674   -1.4114 C   0  0  0  0  0  0  0  0  0  0  0  0
    3.3842   -4.6142   -5.4589 S   0  0  0  0  0  0  0  0  0  0  0  0
    2.8401   -6.3184   -5.1581 C   0  0  0  0  0  0  0  0  0  0  0  0
    3.3475   -7.2099   -6.2621 C   0  0  0  0  0  0  0  0  0  0  0  0
    4.0109   -6.7417   -7.1632 O   0  0  0  0  0  0  0  0  0  0  0  0
    3.0388   -8.6456   -6.2469 C   0  0  0  0  0  0  0  0  0  0  0  0
    2.2683   -9.1872   -5.2108 C   0  0  0  0  0  0  0  0  0  0  0  0
    1.9800  -10.5334   -5.1993 C   0  0  0  0  0  0  0  0  0  0  0  0
    2.4519  -11.3573   -6.2134 C   0  0  0  0  0  0  0  0  0  0  0  0
    3.2201  -10.8255   -7.2491 C   0  0  0  0  0  0  0  0  0  0  0  0
    3.5092   -9.4759   -7.2717 C   0  0  0  0  0  0  0  0  0  0  0  0
    3.6803  -11.6360   -8.2395 O   0  0  0  0  0  0  0  0  0  0  0  0
    2.1650  -12.6840   -6.1960 O   0  0  0  0  0  0  0  0  0  0  0  0
    0.9183   -4.4419   -0.9803 C   0  0  0  0  0  0  0  0  0  0  0  0
   -2.8957   -0.2949   -0.6993 H   0  0  0  0  0  0  0  0  0  0  0  0
   -2.8193   -1.8003    0.2474 H   0  0  0  0  0  0  0  0  0  0  0  0
   -2.8559   -0.2269    1.0789 H   0  0  0  0  0  0  0  0  0  0  0  0
   -0.6418    0.3259    0.0302 H   0  0  0  0  0  0  0  0  0  0  0  0
   -0.5656   -1.0937    1.1013 H   0  0  0  0  0  0  0  0  0  0  0  0
    4.4842   -1.0130   -2.7515 H   0  0  0  0  0  0  0  0  0  0  0  0
    5.4642    1.1208   -2.0173 H   0  0  0  0  0  0  0  0  0  0  0  0
    1.6124    2.9603   -2.2155 H   0  0  0  0  0  0  0  0  0  0  0  0
   -0.3271    2.3508   -1.8332 H   0  0  0  0  0  0  0  0  0  0  0  0
   -0.0304    2.7632   -3.5391 H   0  0  0  0  0  0  0  0  0  0  0  0
   -1.4521    1.7894   -3.0932 H   0  0  0  0  0  0  0  0  0  0  0  0
    5.7830    2.6504   -0.6247 H   0  0  0  0  0  0  0  0  0  0  0  0
    6.0837    3.0968   -2.3213 H   0  0  0  0  0  0  0  0  0  0  0  0
    5.8503    4.3658   -1.0952 H   0  0  0  0  0  0  0  0  0  0  0  0
    3.2355   -6.6626   -4.2024 H   0  0  0  0  0  0  0  0  0  0  0  0
    1.7509   -6.3532   -5.1345 H   0  0  0  0  0  0  0  0  0  0  0  0
    1.9007   -8.5492   -4.4208 H   0  0  0  0  0  0  0  0  0  0  0  0
    1.3856  -10.9500   -4.3996 H   0  0  0  0  0  0  0  0  0  0  0  0
    4.1004   -9.0623   -8.0753 H   0  0  0  0  0  0  0  0  0  0  0  0
    3.0788  -11.7176   -8.9922 H   0  0  0  0  0  0  0  0  0  0  0  0
    1.3472  -12.9156   -6.6571 H   0  0  0  0  0  0  0  0  0  0  0  0
   -0.1253   -4.6951   -1.1674 H   0  0  0  0  0  0  0  0  0  0  0  0
    1.4957   -5.3567   -0.8465 H   0  0  0  0  0  0  0  0  0  0  0  0
    0.9885   -3.8328   -0.0791 H   0  0  0  0  0  0  0  0  0  0  0  0
  1  2  1  0  0  0  0
  1 36  1  0  0  0  0
  1 37  1  0  0  0  0
  1 38  1  0  0  0  0
  2  3  1  0  0  0  0
  2 39  1  0  0  0  0
  2 40  1  0  0  0  0
  3  4  1  0  0  0  0
  4  5  2  0  0  0  0
  4  6  1  0  0  0  0
  6 11  1  0  0  0  0
  6  7  2  0  0  0  0
  7  8  1  0  0  0  0
  7 35  1  0  0  0  0
  8  9  2  0  0  0  0
  9 10  1  0  0  0  0
  9 23  1  0  0  0  0
 10 11  1  0  0  0  0
 11 12  1  6  0  0  0
 11 13  1  0  0  0  0
 13 18  2  0  0  0  0
 13 14  1  0  0  0  0
 14 15  2  0  0  0  0
 14 41  1  0  0  0  0
 15 16  1  0  0  0  0
 15 42  1  0  0  0  0
 16 17  2  0  0  0  0
 16 21  1  0  0  0  0
 17 18  1  0  0  0  0
 17 43  1  0  0  0  0
 18 19  1  0  0  0  0
 19 20  1  0  0  0  0
 20 44  1  0  0  0  0
 20 45  1  0  0  0  0
 20 46  1  0  0  0  0
 21 22  1  0  0  0  0
 22 47  1  0  0  0  0
 22 48  1  0  0  0  0
 22 49  1  0  0  0  0
 23 24  1  0  0  0  0
 24 25  1  0  0  0  0
 24 50  1  0  0  0  0
 24 51  1  0  0  0  0
 25 26  2  0  0  0  0
 25 27  1  0  0  0  0
 27 32  2  0  0  0  0
 27 28  1  0  0  0  0
 28 29  2  0  0  0  0
 28 52  1  0  0  0  0
 29 30  1  0  0  0  0
 29 53  1  0  0  0  0
 30 31  2  0  0  0  0
 30 34  1  0  0  0  0
 31 32  1  0  0  0  0
 31 33  1  0  0  0  0
 32 54  1  0  0  0  0
 33 55  1  0  0  0  0
 34 56  1  0  0  0  0
 35 57  1  0  0  0  0
 35 58  1  0  0  0  0
 35 59  1  0  0  0  0
M  END
$$$$
ZINC19676569
 OpenBabel01252620473D

 32 34  0  0  0  0  0  0  0  0999 V2000
   -2.1299    2.3808   -3.5306 C   0  0  0  0  0  0  0  0  0  0  0  0
   -2.7720    2.7529   -4.6921 C   0  0  0  0  0  0  0  0  0  0  0  0
   -2.1233    3.5532   -5.6201 C   0  0  0  0  0  0  0  0  0  0  0  0
   -0.8285    3.9889   -5.3825 C   0  0  0  0  0  0  0  0  0  0  0  0
   -0.1793    3.6277   -4.2215 C   0  0  0  0  0  0  0  0  0  0  0  0
   -0.8279    2.8215   -3.2836 C   0  0  0  0  0  0  0  0  0  0  0  0
   -0.1371    2.4312   -2.0375 C   0  0  0  0  0  0  0  0  0  0  0  0
    1.0636    2.2414   -2.0421 O   0  0  0  0  0  0  0  0  0  0  0  0
   -0.8381    2.2858   -0.8957 N   0  0  0  0  0  0  0  0  0  0  0  0
   -0.1954    1.7716    0.3228 C   0  0  0  0  0  0  0  0  0  0  0  0
   -0.2029    2.8622    1.4011 C   0  0  0  0  0  0  0  0  0  0  0  0
   -1.5703    3.4958    1.4401 C   0  0  0  0  0  0  0  0  0  0  0  0
   -2.4858    3.3982    0.4451 C   0  0  0  0  0  0  0  0  0  0  0  0
   -3.6067    4.1273    0.8745 C   0  0  0  0  0  0  0  0  0  0  0  0
   -3.3097    4.6065    2.0709 N   0  0  0  0  0  0  0  0  0  0  0  0
   -2.1227    4.2411    2.4131 N   0  0  0  0  0  0  0  0  0  0  0  0
   -4.0426    5.2203    2.6151 H   0  0  0  0  0  0  0  0  0  0  0  0
   -4.8682    4.3232    0.1340 C   0  0  0  0  0  0  0  0  0  0  0  0
   -5.0105    3.8265   -0.9656 O   0  0  0  0  0  0  0  0  0  0  0  0
   -5.8620    5.0527    0.6774 O   0  0  0  0  0  1  0  0  0  0  0  0
   -2.2691    2.6396   -0.8370 C   0  0  0  0  0  0  0  0  0  0  0  0
   -2.7550    3.9101   -6.7597 F   0  0  0  0  0  0  0  0  0  0  0  0
   -2.6343    1.7532   -2.8108 H   0  0  0  0  0  0  0  0  0  0  0  0
   -3.7807    2.4166   -4.8819 H   0  0  0  0  0  0  0  0  0  0  0  0
   -0.3279    4.6125   -6.1084 H   0  0  0  0  0  0  0  0  0  0  0  0
    0.8290    3.9678   -4.0373 H   0  0  0  0  0  0  0  0  0  0  0  0
   -0.7479    0.8923    0.6856 H   0  0  0  0  0  0  0  0  0  0  0  0
    0.8423    1.4851    0.0971 H   0  0  0  0  0  0  0  0  0  0  0  0
    0.0283    2.4133    2.3783 H   0  0  0  0  0  0  0  0  0  0  0  0
    0.5539    3.6227    1.1587 H   0  0  0  0  0  0  0  0  0  0  0  0
   -2.5284    3.2635   -1.7051 H   0  0  0  0  0  0  0  0  0  0  0  0
   -2.8747    1.7215   -0.8513 H   0  0  0  0  0  0  0  0  0  0  0  0
  1  6  2  0  0  0  0
  1  2  1  0  0  0  0
  1 23  1  0  0  0  0
  2  3  2  0  0  0  0
  2 24  1  0  0  0  0
  3  4  1  0  0  0  0
  3 22  1  0  0  0  0
  4  5  2  0  0  0  0
  4 25  1  0  0  0  0
  5  6  1  0  0  0  0
  5 26  1  0  0  0  0
  6  7  1  0  0  0  0
  7  8  2  0  0  0  0
  7  9  1  0  0  0  0
  9 21  1  0  0  0  0
  9 10  1  0  0  0  0
 10 11  1  0  0  0  0
 10 27  1  0  0  0  0
 10 28  1  0  0  0  0
 11 12  1  0  0  0  0
 11 29  1  0  0  0  0
 11 30  1  0  0  0  0
 12 13  1  0  0  0  0
 12 16  2  0  0  0  0
 13 21  1  0  0  0  0
 13 14  2  0  0  0  0
 14 18  1  0  0  0  0
 14 15  1  0  0  0  0
 15 17  1  0  0  0  0
 15 16  1  0  0  0  0
 18 19  2  0  0  0  0
 18 20  1  0  0  0  0
 21 31  1  0  0  0  0
 21 32  1  0  0  0  0
M  END
$$$$
ZINC33873099
 OpenBabel01252620473D

 31 32  0  0  1  0  0  0  0  0999 V2000
   -0.0171    1.4130    0.0098 C   0  0  0  0  0  0  0  0  0  0  0  0
    1.1565    2.0812    0.0022 C   0  0  0  0  0  0  0  0  0  0  0  0
    2.3264    1.3757   -0.0128 N   0  0  0  0  0  0  0  0  0  0  0  0
    2.3104    0.0178   -0.0204 C   0  0  0  0  0  0  0  0  0  0  0  0
    3.4777   -0.6581   -0.0356 O   0  5  0  0  0  0  0  0  0  0  0  0
    1.1785   -0.6497   -0.0127 N   0  0  0  0  0  0  0  0  0  0  0  0
    0.0021   -0.0041    0.0020 C   0  0  0  0  0  0  0  0  0  0  0  0
   -1.4652   -0.8861    0.0119 S   0  0  0  0  0  0  0  0  0  0  0  0
    3.6062    2.0886   -0.0212 C   0  0  2  0  0  0  0  0  0  0  0  0
    4.1719    1.8407   -0.9193 H   0  0  0  0  0  0  0  0  0  0  0  0
    4.4238    1.7408    1.2425 C   0  0  1  0  0  0  0  0  0  0  0  0
    5.1648    0.9734    1.0187 H   0  0  0  0  0  0  0  0  0  0  0  0
    5.1170    3.0694    1.6186 C   0  0  1  0  0  0  0  0  0  0  0  0
    6.2008    2.9588    1.5808 H   0  0  0  0  0  0  0  0  0  0  0  0
    4.6362    4.0628    0.5377 C   0  0  1  0  0  0  0  0  0  0  0  0
    5.3607    4.1195   -0.2747 H   0  0  0  0  0  0  0  0  0  0  0  0
    3.3882    3.5141    0.0583 O   0  0  0  0  0  0  0  0  0  0  0  0
    4.4130    5.4477    1.1486 C   0  0  0  0  0  0  0  0  0  0  0  0
    4.0821    6.3767    0.1145 O   0  0  0  0  0  0  0  0  0  0  0  0
    3.7806    7.9328    0.3972 P   0  0  0  0  0  0  0  0  0  0  0  0
    2.6399    8.0583    1.4638 O   0  0  0  0  0  0  0  0  0  0  0  0
    5.0779    8.6266    0.9357 O   0  0  0  0  0  1  0  0  0  0  0  0
    3.3305    8.6276   -0.9330 O   0  0  0  0  0  1  0  0  0  0  0  0
    4.7040    3.4996    2.9172 O   0  0  0  0  0  0  0  0  0  0  0  0
    3.5593    1.3084    2.2950 O   0  0  0  0  0  0  0  0  0  0  0  0
   -0.9544    1.9494    0.0261 H   0  0  0  0  0  0  0  0  0  0  0  0
    1.1701    3.1611    0.0075 H   0  0  0  0  0  0  0  0  0  0  0  0
    3.5963    5.3997    1.8689 H   0  0  0  0  0  0  0  0  0  0  0  0
    5.3230    5.7736    1.6523 H   0  0  0  0  0  0  0  0  0  0  0  0
    4.9291    2.8819    3.6263 H   0  0  0  0  0  0  0  0  0  0  0  0
    4.0205    1.0771    3.1128 H   0  0  0  0  0  0  0  0  0  0  0  0
  1  7  1  0  0  0  0
  1  2  2  0  0  0  0
  1 26  1  0  0  0  0
  2  3  1  0  0  0  0
  2 27  1  0  0  0  0
  3  4  1  0  0  0  0
  3  9  1  0  0  0  0
  4  5  1  0  0  0  0
  4  6  2  0  0  0  0
  6  7  1  0  0  0  0
  7  8  2  0  0  0  0
  9 10  1  6  0  0  0
  9 17  1  0  0  0  0
  9 11  1  0  0  0  0
 11 12  1  6  0  0  0
 11 13  1  0  0  0  0
 11 25  1  0  0  0  0
 13 14  1  6  0  0  0
 13 15  1  0  0  0  0
 13 24  1  0  0  0  0
 15 16  1  6  0  0  0
 15 17  1  0  0  0  0
 15 18  1  0  0  0  0
 18 19  1  0  0  0  0
 18 28  1  0  0  0  0
 18 29  1  0  0  0  0
 19 20  1  0  0  0  0
 20 21  2  0  0  0  0
 20 22  1  0  0  0  0
 20 23  1  0  0  0  0
 24 30  1  0  0  0  0
 25 31  1  0  0  0  0
M  CHG  1   5  -1
M  END
$$$$
ZINC13034390
 OpenBabel01252620473D

 40 41  0  0  0  0  0  0  0  0999 V2000
    3.5223    2.3365   -0.0190 C   0  0  0  0  0  0  0  0  0  0  0  0
    2.3321    1.4822   -0.0122 N   0  0  0  0  0  0  0  0  0  0  0  0
    2.4720    0.1365   -0.0208 C   0  0  0  0  0  0  0  0  0  0  0  0
    3.5725   -0.3831   -0.0337 O   0  0  0  0  0  0  0  0  0  0  0  0
    1.2451   -0.6761   -0.0134 C   0  0  0  0  0  0  0  0  0  0  0  0
    1.2898   -2.0698   -0.0222 C   0  0  0  0  0  0  0  0  0  0  0  0
    0.1285   -2.7878   -0.0154 C   0  0  0  0  0  0  0  0  0  0  0  0
   -1.1121   -2.1372    0.0003 C   0  0  0  0  0  0  0  0  0  0  0  0
   -1.1802   -0.7497    0.0088 C   0  0  0  0  0  0  0  0  0  0  0  0
    0.0021   -0.0041    0.0020 C   0  0  0  0  0  0  0  0  0  0  0  0
   -0.0163    1.3496    0.0095 N   0  0  0  0  0  0  0  0  0  0  0  0
    1.0906    2.0506    0.0027 C   0  0  0  0  0  0  0  0  0  0  0  0
    0.9716    3.8086    0.0126 S   0  0  0  0  0  0  0  0  0  0  0  0
   -0.8280    4.0017    0.0304 C   0  0  0  0  0  0  0  0  0  0  0  0
   -1.1757    5.4680    0.0411 C   0  0  0  0  0  0  0  0  0  0  0  0
   -0.2937    6.3005    0.0370 O   0  0  0  0  0  0  0  0  0  0  0  0
   -2.4669    5.8543    0.0551 N   0  0  0  0  0  0  0  0  0  0  0  0
   -2.8049    7.2797    0.0654 C   0  0  0  0  0  0  0  0  0  0  0  0
   -4.3261    7.4430    0.0804 C   0  0  0  0  0  0  0  0  0  0  0  0
   -4.8491    6.9215    1.3038 O   0  0  0  0  0  0  0  0  0  0  0  0
   -6.2696    7.0256    1.4199 C   0  0  0  0  0  0  0  0  0  0  0  0
   -2.3590   -2.9337    0.0074 C   0  0  0  0  0  0  0  0  0  0  0  0
   -3.4368   -2.3743    0.0206 O   0  0  0  0  0  0  0  0  0  0  0  0
    4.4166    1.7135   -0.0309 H   0  0  0  0  0  0  0  0  0  0  0  0
    3.5093    2.9705   -0.9056 H   0  0  0  0  0  0  0  0  0  0  0  0
    3.5263    2.9610    0.8743 H   0  0  0  0  0  0  0  0  0  0  0  0
    2.2414   -2.5804   -0.0347 H   0  0  0  0  0  0  0  0  0  0  0  0
    0.1667   -3.8671   -0.0219 H   0  0  0  0  0  0  0  0  0  0  0  0
   -2.1383   -0.2515    0.0202 H   0  0  0  0  0  0  0  0  0  0  0  0
   -1.2524    3.5341   -0.8580 H   0  0  0  0  0  0  0  0  0  0  0  0
   -1.2357    3.5251    0.9219 H   0  0  0  0  0  0  0  0  0  0  0  0
   -3.1723    5.1885    0.0583 H   0  0  0  0  0  0  0  0  0  0  0  0
   -2.3805    7.7474    0.9538 H   0  0  0  0  0  0  0  0  0  0  0  0
   -2.3971    7.7563   -0.8260 H   0  0  0  0  0  0  0  0  0  0  0  0
   -4.5789    8.5001   -0.0014 H   0  0  0  0  0  0  0  0  0  0  0  0
   -4.7581    6.8999   -0.7601 H   0  0  0  0  0  0  0  0  0  0  0  0
   -6.5627    8.0741    1.3658 H   0  0  0  0  0  0  0  0  0  0  0  0
   -6.7419    6.4739    0.6071 H   0  0  0  0  0  0  0  0  0  0  0  0
   -6.5876    6.6083    2.3753 H   0  0  0  0  0  0  0  0  0  0  0  0
   -2.2987   -4.2791   -0.0008 O   0  0  0  0  0  1  0  0  0  0  0  0
  1  2  1  0  0  0  0
  1 24  1  0  0  0  0
  1 25  1  0  0  0  0
  1 26  1  0  0  0  0
  2 12  1  0  0  0  0
  2  3  1  0  0  0  0
  3  4  2  0  0  0  0
  3  5  1  0  0  0  0
  5 10  2  0  0  0  0
  5  6  1  0  0  0  0
  6  7  2  0  0  0  0
  6 27  1  0  0  0  0
  7  8  1  0  0  0  0
  7 28  1  0  0  0  0
  8  9  2  0  0  0  0
  8 22  1  0  0  0  0
  9 10  1  0  0  0  0
  9 29  1  0  0  0  0
 10 11  1  0  0  0  0
 11 12  2  0  0  0  0
 12 13  1  0  0  0  0
 13 14  1  0  0  0  0
 14 15  1  0  0  0  0
 14 30  1  0  0  0  0
 14 31  1  0  0  0  0
 15 16  2  0  0  0  0
 15 17  1  0  0  0  0
 17 18  1  0  0  0  0
 17 32  1  0  0  0  0
 18 19  1  0  0  0  0
 18 33  1  0  0  0  0
 18 34  1  0  0  0  0
 19 20  1  0  0  0  0
 19 35  1  0  0  0  0
 19 36  1  0  0  0  0
 20 21  1  0  0  0  0
 21 37  1  0  0  0  0
 21 38  1  0  0  0  0
 21 39  1  0  0  0  0
 22 23  2  0  0  0  0
 22 40  1  0  0  0  0
M  END
$$$$
ZINC21950380
 OpenBabel01252620473D

 37 37  0  0  0  0  0  0  0  0999 V2000
    1.4176    1.9904   -0.0008 C   0  0  0  0  0  0  0  0  0  0  0  0
   -0.0178    1.4608    0.0101 C   0  0  0  0  0  0  0  0  0  0  0  0
    0.0021   -0.0041    0.0020 N   0  0  0  0  0  0  0  0  0  0  0  0
    0.1346   -0.7418    1.2608 C   0  0  0  0  0  0  0  0  0  0  0  0
   -1.2448   -0.9101    1.9009 C   0  0  0  0  0  0  0  0  0  0  0  0
   -0.1253   -0.8260   -1.4299 S   0  0  0  0  0  0  0  0  0  0  0  0
   -0.6299   -2.1163   -1.1141 O   0  0  0  0  0  0  0  0  0  0  0  0
   -0.7796    0.0457   -2.3417 O   0  0  0  0  0  0  0  0  0  0  0  0
    1.5098   -1.0610   -2.0430 C   0  0  0  0  0  0  0  0  0  0  0  0
    2.2033   -0.1919   -2.8916 C   0  0  0  0  0  0  0  0  0  0  0  0
    3.3854   -0.7029   -3.1226 N   0  0  0  0  0  0  0  0  0  0  0  0
    3.4779   -1.9201   -2.4353 N   0  0  0  0  0  0  0  0  0  0  0  0
    2.3143   -2.1169   -1.7807 C   0  0  0  0  0  0  0  0  0  0  0  0
    1.9724   -3.3004   -0.9127 C   0  0  0  0  0  0  0  0  0  0  0  0
    4.6335   -2.8205   -2.4287 C   0  0  0  0  0  0  0  0  0  0  0  0
    4.5071   -3.8083   -3.5597 C   0  0  0  0  0  0  0  0  0  0  0  0
    3.5499   -3.7647   -4.2958 O   0  0  0  0  0  0  0  0  0  0  0  0
    5.4579   -4.7367   -3.7494 O   0  0  0  0  0  1  0  0  0  0  0  0
    1.6808    1.1103   -3.4414 C   0  0  0  0  0  0  0  0  0  0  0  0
    1.4027    3.0903    0.0053 H   0  0  0  0  0  0  0  0  0  0  0  0
    1.9324    1.6357   -0.9059 H   0  0  0  0  0  0  0  0  0  0  0  0
    1.9496    1.6260    0.8903 H   0  0  0  0  0  0  0  0  0  0  0  0
   -0.5326    1.8155    0.9152 H   0  0  0  0  0  0  0  0  0  0  0  0
   -0.5499    1.8252   -0.8810 H   0  0  0  0  0  0  0  0  0  0  0  0
    0.5696   -1.7323    1.0613 H   0  0  0  0  0  0  0  0  0  0  0  0
    0.7909   -0.1843    1.9452 H   0  0  0  0  0  0  0  0  0  0  0  0
   -1.1453   -1.4640    2.8460 H   0  0  0  0  0  0  0  0  0  0  0  0
   -1.9010   -1.4677    1.2165 H   0  0  0  0  0  0  0  0  0  0  0  0
   -1.6797    0.0804    2.1004 H   0  0  0  0  0  0  0  0  0  0  0  0
    2.8244   -3.9958   -0.8887 H   0  0  0  0  0  0  0  0  0  0  0  0
    1.0911   -3.8143   -1.3240 H   0  0  0  0  0  0  0  0  0  0  0  0
    1.7521   -2.9549    0.1081 H   0  0  0  0  0  0  0  0  0  0  0  0
    5.5557   -2.2344   -2.5551 H   0  0  0  0  0  0  0  0  0  0  0  0
    4.6713   -3.3616   -1.4717 H   0  0  0  0  0  0  0  0  0  0  0  0
    2.4487    1.5739   -4.0780 H   0  0  0  0  0  0  0  0  0  0  0  0
    1.4361    1.7875   -2.6098 H   0  0  0  0  0  0  0  0  0  0  0  0
    0.7762    0.9199   -4.0376 H   0  0  0  0  0  0  0  0  0  0  0  0
  1  2  1  0  0  0  0
  1 20  1  0  0  0  0
  1 21  1  0  0  0  0
  1 22  1  0  0  0  0
  2  3  1  0  0  0  0
  2 23  1  0  0  0  0
  2 24  1  0  0  0  0
  3  4  1  0  0  0  0
  3  6  1  0  0  0  0
  4  5  1  0  0  0  0
  4 25  1  0  0  0  0
  4 26  1  0  0  0  0
  5 27  1  0  0  0  0
  5 28  1  0  0  0  0
  5 29  1  0  0  0  0
  6  7  2  0  0  0  0
  6  8  2  0  0  0  0
  6  9  1  0  0  0  0
  9 13  2  0  0  0  0
  9 10  1  0  0  0  0
 10 11  2  0  0  0  0
 10 19  1  0  0  0  0
 11 12  1  0  0  0  0
 12 13  1  0  0  0  0
 12 15  1  0  0  0  0
 13 14  1  0  0  0  0
 14 30  1  0  0  0  0
 14 31  1  0  0  0  0
 14 32  1  0  0  0  0
 15 16  1  0  0  0  0
 15 33  1  0  0  0  0
 15 34  1  0  0  0  0
 16 17  2  0  0  0  0
 16 18  1  0  0  0  0
 19 35  1  0  0  0  0
 19 36  1  0  0  0  0
 19 37  1  0  0  0  0
M  END
$$$$
ZINC13273198
 OpenBabel01252620473D

 43 44  0  0  0  0  0  0  0  0999 V2000
    2.7963   -3.2628    1.1948 C   0  0  0  0  0  0  0  0  0  0  0  0
    3.6008   -2.6776    0.1690 O   0  0  0  0  0  0  0  0  0  0  0  0
    3.6018   -1.3197    0.0838 C   0  0  0  0  0  0  0  0  0  0  0  0
    2.8472   -0.5748    0.9660 C   0  0  0  0  0  0  0  0  0  0  0  0
    2.8484    0.8220    0.8788 C   0  0  0  0  0  0  0  0  0  0  0  0
    3.6148    1.4574   -0.1117 C   0  0  0  0  0  0  0  0  0  0  0  0
    4.3734    0.6983   -0.9887 C   0  0  0  0  0  0  0  0  0  0  0  0
    4.3666   -0.6844   -0.8956 C   0  0  0  0  0  0  0  0  0  0  0  0
    5.1074   -1.4240   -1.7604 O   0  0  0  0  0  0  0  0  0  0  0  0
    5.8670   -0.7107   -2.7383 C   0  0  0  0  0  0  0  0  0  0  0  0
    3.6166    2.8481   -0.2092 N   0  0  0  0  0  0  0  0  0  0  0  0
    4.7732    3.5074   -0.4190 C   0  0  0  0  0  0  0  0  0  0  0  0
    5.7962    2.8881   -0.6210 O   0  0  0  0  0  0  0  0  0  0  0  0
    4.7954    5.0142   -0.4025 C   0  0  0  0  0  0  0  0  0  0  0  0
    6.4845    5.5975   -0.7141 S   0  0  0  0  0  0  0  0  0  0  0  0
    6.3452    7.3533   -0.6637 C   0  0  0  0  0  0  0  0  0  0  0  0
    5.2797    8.1016   -0.4514 N   0  0  0  0  0  0  0  0  0  0  0  0
    5.3945    9.4725   -0.4540 N   0  0  0  0  0  0  0  0  0  0  0  0
    6.5696   10.0322   -0.6688 C   0  0  0  0  0  0  0  0  0  0  0  0
    7.6105    8.5958   -0.8786 S   0  0  0  0  0  0  0  0  0  0  0  0
    6.9991   11.7401   -0.7258 S   0  0  0  0  0  0  0  0  0  0  0  0
    5.4307   12.5976   -0.4169 C   0  0  0  0  0  0  0  0  0  0  0  0
    5.6596   14.0870   -0.4391 C   0  0  0  0  0  0  0  0  0  0  0  0
    6.7713   14.5267   -0.6431 O   0  0  0  0  0  0  0  0  0  0  0  0
    4.6288   14.9303   -0.2321 N   0  0  0  0  0  0  0  0  0  0  0  0
    2.0454    1.6213    1.8174 C   0  0  0  0  0  0  0  0  0  0  0  0
    2.0751    2.8351    1.7617 O   0  0  0  0  0  0  0  0  0  0  0  0
    3.1348   -2.9085    2.1685 H   0  0  0  0  0  0  0  0  0  0  0  0
    1.7547   -2.9779    1.0465 H   0  0  0  0  0  0  0  0  0  0  0  0
    2.8857   -4.3482    1.1519 H   0  0  0  0  0  0  0  0  0  0  0  0
    2.2565   -1.0688    1.7232 H   0  0  0  0  0  0  0  0  0  0  0  0
    4.9673    1.1847   -1.7483 H   0  0  0  0  0  0  0  0  0  0  0  0
    6.4111   -1.4189   -3.3632 H   0  0  0  0  0  0  0  0  0  0  0  0
    5.1949   -0.1193   -3.3600 H   0  0  0  0  0  0  0  0  0  0  0  0
    6.5746   -0.0498   -2.2375 H   0  0  0  0  0  0  0  0  0  0  0  0
    2.7854    3.3412   -0.1260 H   0  0  0  0  0  0  0  0  0  0  0  0
    4.1304    5.3958   -1.1774 H   0  0  0  0  0  0  0  0  0  0  0  0
    4.4613    5.3718    0.5714 H   0  0  0  0  0  0  0  0  0  0  0  0
    4.7113   12.3290   -1.1905 H   0  0  0  0  0  0  0  0  0  0  0  0
    5.0421   12.3042    0.5583 H   0  0  0  0  0  0  0  0  0  0  0  0
    3.7397   14.5786   -0.0689 H   0  0  0  0  0  0  0  0  0  0  0  0
    4.7761   15.8889   -0.2464 H   0  0  0  0  0  0  0  0  0  0  0  0
    1.2767    1.0074    2.7389 O   0  0  0  0  0  1  0  0  0  0  0  0
  1  2  1  0  0  0  0
  1 28  1  0  0  0  0
  1 29  1  0  0  0  0
  1 30  1  0  0  0  0
  2  3  1  0  0  0  0
  3  8  2  0  0  0  0
  3  4  1  0  0  0  0
  4  5  2  0  0  0  0
  4 31  1  0  0  0  0
  5  6  1  0  0  0  0
  5 26  1  0  0  0  0
  6  7  2  0  0  0  0
  6 11  1  0  0  0  0
  7  8  1  0  0  0  0
  7 32  1  0  0  0  0
  8  9  1  0  0  0  0
  9 10  1  0  0  0  0
 10 33  1  0  0  0  0
 10 34  1  0  0  0  0
 10 35  1  0  0  0  0
 11 12  1  0  0  0  0
 11 36  1  0  0  0  0
 12 13  2  0  0  0  0
 12 14  1  0  0  0  0
 14 15  1  0  0  0  0
 14 37  1  0  0  0  0
 14 38  1  0  0  0  0
 15 16  1  0  0  0  0
 16 20  1  0  0  0  0
 16 17  2  0  0  0  0
 17 18  1  0  0  0  0
 18 19  2  0  0  0  0
 19 20  1  0  0  0  0
 19 21  1  0  0  0  0
 21 22  1  0  0  0  0
 22 23  1  0  0  0  0
 22 39  1  0  0  0  0
 22 40  1  0  0  0  0
 23 24  2  0  0  0  0
 23 25  1  0  0  0  0
 25 41  1  0  0  0  0
 25 42  1  0  0  0  0
 26 27  2  0  0  0  0
 26 43  1  0  0  0  0
M  END
$$$$
ZINC58426289
 OpenBabel01252620473D

 50 51  0  0  0  0  0  0  0  0999 V2000
   -0.0184    1.5028    0.0103 C   0  0  0  0  0  0  0  0  0  0  0  0
    0.0021   -0.0041    0.0020 C   0  0  0  0  0  0  0  0  0  0  0  0
    0.0057   -0.6868   -1.2043 C   0  0  0  0  0  0  0  0  0  0  0  0
    0.0238   -2.0661   -1.2263 C   0  0  0  0  0  0  0  0  0  0  0  0
    0.0387   -2.7812   -0.0349 C   0  0  0  0  0  0  0  0  0  0  0  0
    0.0356   -2.0928    1.1881 C   0  0  0  0  0  0  0  0  0  0  0  0
    0.0228   -0.6955    1.1932 C   0  0  0  0  0  0  0  0  0  0  0  0
    0.0513   -2.8391    2.4594 C   0  0  0  0  0  0  0  0  0  0  0  0
    0.0669   -4.0550    2.4505 O   0  0  0  0  0  0  0  0  0  0  0  0
    0.0482   -2.1738    3.6315 N   0  0  0  0  0  0  0  0  0  0  0  0
    0.0638   -2.9154    4.8948 C   0  0  0  0  0  0  0  0  0  0  0  0
    0.0567   -1.9446    6.0474 C   0  0  0  0  0  0  0  0  0  0  0  0
    1.2512   -1.4797    6.5664 C   0  0  0  0  0  0  0  0  0  0  0  0
    1.2480   -0.5890    7.6237 C   0  0  0  0  0  0  0  0  0  0  0  0
    0.0508   -0.1614    8.1648 C   0  0  0  0  0  0  0  0  0  0  0  0
   -1.1487   -0.6263    7.6460 C   0  0  0  0  0  0  0  0  0  0  0  0
   -1.1430   -1.5155    6.5808 C   0  0  0  0  0  0  0  0  0  0  0  0
   -2.3276   -0.2072    8.1764 O   0  0  0  0  0  0  0  0  0  0  0  0
   -2.2575    0.7131    9.2674 C   0  0  0  0  0  0  0  0  0  0  0  0
   -3.6730    1.0674    9.7275 C   0  0  0  0  0  0  0  0  0  0  0  0
   -4.3077   -0.0984   10.2566 O   0  0  0  0  0  0  0  0  0  0  0  0
   -5.6419    0.1246   10.7173 C   0  0  0  0  0  0  0  0  0  0  0  0
    0.0561   -4.1697   -0.0544 N   0  0  0  0  0  2  0  0  0  0  0  0
    0.0592   -4.9775   -1.5000 S   0  0  0  0  0  0  0  0  0  0  0  0
   -1.1828   -4.6438   -2.1045 O   0  0  0  0  0  0  0  0  0  0  0  0
    1.2863   -4.6127   -2.1167 O   0  0  0  0  0  0  0  0  0  0  0  0
    0.0835   -6.7351   -1.0517 C   0  0  0  0  0  0  0  0  0  0  0  0
    1.0042    1.8801    0.0026 H   0  0  0  0  0  0  0  0  0  0  0  0
   -0.5455    1.8639   -0.8728 H   0  0  0  0  0  0  0  0  0  0  0  0
   -0.5286    1.8543    0.9071 H   0  0  0  0  0  0  0  0  0  0  0  0
   -0.0062   -0.1355   -2.1329 H   0  0  0  0  0  0  0  0  0  0  0  0
    0.0261   -2.5906   -2.1704 H   0  0  0  0  0  0  0  0  0  0  0  0
    0.0243   -0.1583    2.1301 H   0  0  0  0  0  0  0  0  0  0  0  0
    0.0357   -1.2039    3.6386 H   0  0  0  0  0  0  0  0  0  0  0  0
   -0.8178   -3.5539    4.9522 H   0  0  0  0  0  0  0  0  0  0  0  0
    0.9620   -3.5310    4.9438 H   0  0  0  0  0  0  0  0  0  0  0  0
    2.1881   -1.8132    6.1453 H   0  0  0  0  0  0  0  0  0  0  0  0
    2.1822   -0.2274    8.0273 H   0  0  0  0  0  0  0  0  0  0  0  0
    0.0489    0.5338    8.9912 H   0  0  0  0  0  0  0  0  0  0  0  0
   -2.0757   -1.8752    6.1720 H   0  0  0  0  0  0  0  0  0  0  0  0
   -1.7106    0.2571   10.0927 H   0  0  0  0  0  0  0  0  0  0  0  0
   -1.7424    1.6185    8.9465 H   0  0  0  0  0  0  0  0  0  0  0  0
   -3.6225    1.8355   10.4993 H   0  0  0  0  0  0  0  0  0  0  0  0
   -4.2476    1.4411    8.8800 H   0  0  0  0  0  0  0  0  0  0  0  0
   -5.6323    0.8732   11.5096 H   0  0  0  0  0  0  0  0  0  0  0  0
   -6.2574    0.4787    9.8903 H   0  0  0  0  0  0  0  0  0  0  0  0
   -6.0536   -0.8078   11.1034 H   0  0  0  0  0  0  0  0  0  0  0  0
   -0.8007   -6.9714   -0.4597 H   0  0  0  0  0  0  0  0  0  0  0  0
    0.0867   -7.3411   -1.9578 H   0  0  0  0  0  0  0  0  0  0  0  0
    0.9791   -6.9489   -0.4685 H   0  0  0  0  0  0  0  0  0  0  0  0
  1  2  1  0  0  0  0
  1 28  1  0  0  0  0
  1 29  1  0  0  0  0
  1 30  1  0  0  0  0
  2  7  2  0  0  0  0
  2  3  1  0  0  0  0
  3  4  2  0  0  0  0
  3 31  1  0  0  0  0
  4  5  1  0  0  0  0
  4 32  1  0  0  0  0
  5  6  2  0  0  0  0
  5 23  1  0  0  0  0
  6  7  1  0  0  0  0
  6  8  1  0  0  0  0
  7 33  1  0  0  0  0
  8  9  2  0  0  0  0
  8 10  1  0  0  0  0
 10 11  1  0  0  0  0
 10 34  1  0  0  0  0
 11 12  1  0  0  0  0
 11 35  1  0  0  0  0
 11 36  1  0  0  0  0
 12 17  2  0  0  0  0
 12 13  1  0  0  0  0
 13 14  2  0  0  0  0
 13 37  1  0  0  0  0
 14 15  1  0  0  0  0
 14 38  1  0  0  0  0
 15 16  2  0  0  0  0
 15 39  1  0  0  0  0
 16 17  1  0  0  0  0
 16 18  1  0  0  0  0
 17 40  1  0  0  0  0
 18 19  1  0  0  0  0
 19 20  1  0  0  0  0
 19 41  1  0  0  0  0
 19 42  1  0  0  0  0
 20 21  1  0  0  0  0
 20 43  1  0  0  0  0
 20 44  1  0  0  0  0
 21 22  1  0  0  0  0
 22 45  1  0  0  0  0
 22 46  1  0  0  0  0
 22 47  1  0  0  0  0
 23 24  1  0  0  0  0
 24 25  2  0  0  0  0
 24 26  2  0  0  0  0
 24 27  1  0  0  0  0
 27 48  1  0  0  0  0
 27 49  1  0  0  0  0
 27 50  1  0  0  0  0
M  END
$$$$
ZINC66814487
 OpenBabel01252620473D

 40 42  0  0  1  0  0  0  0  0999 V2000
   -0.0168    1.3849    0.0097 C   0  0  0  0  0  0  0  0  0  0  0  0
    1.1707    2.0901    0.0021 C   0  0  0  0  0  0  0  0  0  0  0  0
    2.3774    1.4150   -0.0135 C   0  0  0  0  0  0  0  0  0  0  0  0
    2.3998    0.0323   -0.0211 C   0  0  0  0  0  0  0  0  0  0  0  0
    1.2161   -0.6790   -0.0137 C   0  0  0  0  0  0  0  0  0  0  0  0
    0.0021   -0.0041    0.0020 C   0  0  0  0  0  0  0  0  0  0  0  0
   -1.1970   -0.7204    0.0101 N   0  0  0  0  0  2  0  0  0  0  0  0
   -1.1724   -2.3762    0.0010 S   0  0  0  0  0  0  0  0  0  0  0  0
   -0.6279   -2.7674   -1.2520 O   0  0  0  0  0  0  0  0  0  0  0  0
   -0.6032   -2.7807    1.2386 O   0  0  0  0  0  0  0  0  0  0  0  0
   -2.8476   -2.9222    0.0147 C   0  0  0  0  0  0  0  0  0  0  0  0
   -3.5953   -3.1696    1.1150 C   0  0  0  0  0  0  0  0  0  0  0  0
   -4.8170   -3.5664    0.7014 N   0  0  0  0  0  0  0  0  0  0  0  0
   -5.5616   -3.8107    1.2731 H   0  0  0  0  0  0  0  0  0  0  0  0
   -4.8202   -3.5627   -0.6994 N   0  0  0  0  0  0  0  0  0  0  0  0
   -3.6413   -3.1707   -1.1099 C   0  0  0  0  0  0  0  0  0  0  0  0
    3.8900    2.3186   -0.0243 S   0  0  0  0  0  0  0  0  0  0  0  0
    4.8283    1.4478   -0.6410 O   0  0  0  0  0  0  0  0  0  0  0  0
    3.5621    3.5675   -0.6176 O   0  0  0  0  0  0  0  0  0  0  0  0
    4.3080    2.5489    1.7259 C   0  0  0  0  0  0  0  0  0  0  0  0
    5.6184    3.3305    1.8387 C   0  0  1  0  0  0  0  0  0  0  0  0
    5.5216    4.3021    1.3543 H   0  0  0  0  0  0  0  0  0  0  0  0
    6.0122    3.5081    3.3267 C   0  0  0  0  0  0  0  0  0  0  0  0
    7.5494    3.6932    3.2048 C   0  0  0  0  0  0  0  0  0  0  0  0
    7.8958    2.7784    2.0104 C   0  0  0  0  0  0  0  0  0  0  0  0
    6.6959    2.5849    1.2498 O   0  0  0  0  0  0  0  0  0  0  0  0
   -0.9589    1.9127    0.0260 H   0  0  0  0  0  0  0  0  0  0  0  0
    1.1567    3.1700    0.0080 H   0  0  0  0  0  0  0  0  0  0  0  0
    3.3440   -0.4918   -0.0333 H   0  0  0  0  0  0  0  0  0  0  0  0
    1.2342   -1.7588   -0.0200 H   0  0  0  0  0  0  0  0  0  0  0  0
   -3.2722   -3.0678    2.1405 H   0  0  0  0  0  0  0  0  0  0  0  0
   -3.3333   -3.0609   -2.1392 H   0  0  0  0  0  0  0  0  0  0  0  0
    3.5103    3.1037    2.2199 H   0  0  0  0  0  0  0  0  0  0  0  0
    4.4231    1.5757    2.2030 H   0  0  0  0  0  0  0  0  0  0  0  0
    5.5426    4.3940    3.7543 H   0  0  0  0  0  0  0  0  0  0  0  0
    5.7685    2.6180    3.9066 H   0  0  0  0  0  0  0  0  0  0  0  0
    7.7989    4.7309    2.9837 H   0  0  0  0  0  0  0  0  0  0  0  0
    8.0537    3.3563    4.1105 H   0  0  0  0  0  0  0  0  0  0  0  0
    8.6538    3.2539    1.3880 H   0  0  0  0  0  0  0  0  0  0  0  0
    8.2631    1.8187    2.3740 H   0  0  0  0  0  0  0  0  0  0  0  0
  1  6  2  0  0  0  0
  1  2  1  0  0  0  0
  1 27  1  0  0  0  0
  2  3  2  0  0  0  0
  2 28  1  0  0  0  0
  3  4  1  0  0  0  0
  3 17  1  0  0  0  0
  4  5  2  0  0  0  0
  4 29  1  0  0  0  0
  5  6  1  0  0  0  0
  5 30  1  0  0  0  0
  6  7  1  0  0  0  0
  7  8  1  0  0  0  0
  8  9  2  0  0  0  0
  8 10  2  0  0  0  0
  8 11  1  0  0  0  0
 11 16  1  0  0  0  0
 11 12  2  0  0  0  0
 12 13  1  0  0  0  0
 12 31  1  0  0  0  0
 13 14  1  0  0  0  0
 13 15  1  0  0  0  0
 15 16  2  0  0  0  0
 16 32  1  0  0  0  0
 17 18  2  0  0  0  0
 17 19  2  0  0  0  0
 17 20  1  0  0  0  0
 20 21  1  0  0  0  0
 20 33  1  0  0  0  0
 20 34  1  0  0  0  0
 21 22  1  6  0  0  0
 21 26  1  0  0  0  0
 21 23  1  0  0  0  0
 23 24  1  0  0  0  0
 23 35  1  0  0  0  0
 23 36  1  0  0  0  0
 24 25  1  0  0  0  0
 24 37  1  0  0  0  0
 24 38  1  0  0  0  0
 25 26  1  0  0  0  0
 25 39  1  0  0  0  0
 25 40  1  0  0  0  0
M  END
$$$$
ZINC64363009
 OpenBabel01252620473D

 52 53  0  0  0  0  0  0  0  0999 V2000
    0.0066    1.5049   -0.0372 C   0  0  0  0  0  0  0  0  0  0  0  0
    0.0222   -0.0250   -0.0456 C   0  0  0  0  0  0  0  0  0  0  0  0
   -1.4148   -0.5499   -0.0241 C   0  0  0  0  0  0  0  0  0  0  0  0
   -1.3962   -2.3637   -0.0341 S   0  0  0  0  0  0  0  0  0  0  0  0
   -0.9068   -2.8413   -1.2798 O   0  0  0  0  0  0  0  0  0  0  0  0
   -0.8650   -2.8545    1.1891 O   0  0  0  0  0  0  0  0  0  0  0  0
   -2.9919   -2.8058   -0.0095 N   0  0  0  0  0  2  0  0  0  0  0  0
   -3.3421   -4.1579   -0.0108 C   0  0  0  0  0  0  0  0  0  0  0  0
   -2.3518   -5.1331   -0.0270 C   0  0  0  0  0  0  0  0  0  0  0  0
   -2.6975   -6.4704   -0.0284 C   0  0  0  0  0  0  0  0  0  0  0  0
   -4.0280   -6.8432   -0.0140 C   0  0  0  0  0  0  0  0  0  0  0  0
   -5.0226   -5.8736    0.0022 C   0  0  0  0  0  0  0  0  0  0  0  0
   -4.6789   -4.5293    0.0099 C   0  0  0  0  0  0  0  0  0  0  0  0
   -5.7553   -3.4748    0.0339 C   0  0  0  0  0  0  0  0  0  0  0  0
   -6.3695   -6.2522    0.0168 N   0  0  0  0  0  0  0  0  0  0  0  0
   -6.7259   -7.4563    0.5063 C   0  0  0  0  0  0  0  0  0  0  0  0
   -5.8940   -8.1702    1.0253 O   0  0  0  0  0  0  0  0  0  0  0  0
   -8.1579   -7.9155    0.4089 C   0  0  0  0  0  0  0  0  0  0  0  0
   -8.2826   -9.2135    0.9935 O   0  0  0  0  0  0  0  0  0  0  0  0
   -9.5196   -9.7765    0.9877 C   0  0  0  0  0  0  0  0  0  0  0  0
  -10.5902   -9.0960    0.4256 C   0  0  0  0  0  0  0  0  0  0  0  0
  -11.8462   -9.6705    0.4205 C   0  0  0  0  0  0  0  0  0  0  0  0
  -12.0373  -10.9228    0.9750 C   0  0  0  0  0  0  0  0  0  0  0  0
  -10.9723  -11.6027    1.5361 C   0  0  0  0  0  0  0  0  0  0  0  0
   -9.7128  -11.0348    1.5385 C   0  0  0  0  0  0  0  0  0  0  0  0
   -8.5510  -11.7791    2.1447 C   0  0  0  0  0  0  0  0  0  0  0  0
  -13.4088  -11.5473    0.9681 C   0  0  0  0  0  0  0  0  0  0  0  0
    1.0303    1.8788   -0.0525 H   0  0  0  0  0  0  0  0  0  0  0  0
   -0.5260    1.8677   -0.9163 H   0  0  0  0  0  0  0  0  0  0  0  0
   -0.4958    1.8581    0.8634 H   0  0  0  0  0  0  0  0  0  0  0  0
    0.5246   -0.3782   -0.9461 H   0  0  0  0  0  0  0  0  0  0  0  0
    0.5548   -0.3878    0.8335 H   0  0  0  0  0  0  0  0  0  0  0  0
   -1.9171   -0.1966    0.8764 H   0  0  0  0  0  0  0  0  0  0  0  0
   -1.9473   -0.1871   -0.9032 H   0  0  0  0  0  0  0  0  0  0  0  0
   -1.3110   -4.8449   -0.0390 H   0  0  0  0  0  0  0  0  0  0  0  0
   -1.9262   -7.2263   -0.0410 H   0  0  0  0  0  0  0  0  0  0  0  0
   -4.2950   -7.8897   -0.0159 H   0  0  0  0  0  0  0  0  0  0  0  0
   -6.0322   -3.2150   -0.9879 H   0  0  0  0  0  0  0  0  0  0  0  0
   -6.6288   -3.8591    0.5605 H   0  0  0  0  0  0  0  0  0  0  0  0
   -5.3833   -2.5875    0.5463 H   0  0  0  0  0  0  0  0  0  0  0  0
   -7.0468   -5.6480   -0.3255 H   0  0  0  0  0  0  0  0  0  0  0  0
   -8.8013   -7.2143    0.9403 H   0  0  0  0  0  0  0  0  0  0  0  0
   -8.4550   -7.9589   -0.6389 H   0  0  0  0  0  0  0  0  0  0  0  0
  -10.4415   -8.1177   -0.0073 H   0  0  0  0  0  0  0  0  0  0  0  0
  -12.6799   -9.1410   -0.0166 H   0  0  0  0  0  0  0  0  0  0  0  0
  -11.1241  -12.5805    1.9688 H   0  0  0  0  0  0  0  0  0  0  0  0
   -8.4712  -11.5287    3.2026 H   0  0  0  0  0  0  0  0  0  0  0  0
   -8.7105  -12.8519    2.0363 H   0  0  0  0  0  0  0  0  0  0  0  0
   -7.6311  -11.4951    1.6337 H   0  0  0  0  0  0  0  0  0  0  0  0
  -13.5375  -12.1314    0.0569 H   0  0  0  0  0  0  0  0  0  0  0  0
  -13.5157  -12.1988    1.8355 H   0  0  0  0  0  0  0  0  0  0  0  0
  -14.1651  -10.7634    1.0071 H   0  0  0  0  0  0  0  0  0  0  0  0
  1  2  1  0  0  0  0
  1 28  1  0  0  0  0
  1 29  1  0  0  0  0
  1 30  1  0  0  0  0
  2  3  1  0  0  0  0
  2 31  1  0  0  0  0
  2 32  1  0  0  0  0
  3  4  1  0  0  0  0
  3 33  1  0  0  0  0
  3 34  1  0  0  0  0
  4  5  2  0  0  0  0
  4  6  2  0  0  0  0
  4  7  1  0  0  0  0
  7  8  1  0  0  0  0
  8 13  2  0  0  0  0
  8  9  1  0  0  0  0
  9 10  2  0  0  0  0
  9 35  1  0  0  0  0
 10 11  1  0  0  0  0
 10 36  1  0  0  0  0
 11 12  2  0  0  0  0
 11 37  1  0  0  0  0
 12 13  1  0  0  0  0
 12 15  1  0  0  0  0
 13 14  1  0  0  0  0
 14 38  1  0  0  0  0
 14 39  1  0  0  0  0
 14 40  1  0  0  0  0
 15 16  1  0  0  0  0
 15 41  1  0  0  0  0
 16 17  2  0  0  0  0
 16 18  1  0  0  0  0
 18 19  1  0  0  0  0
 18 42  1  0  0  0  0
 18 43  1  0  0  0  0
 19 20  1  0  0  0  0
 20 25  2  0  0  0  0
 20 21  1  0  0  0  0
 21 22  2  0  0  0  0
 21 44  1  0  0  0  0
 22 23  1  0  0  0  0
 22 45  1  0  0  0  0
 23 24  2  0  0  0  0
 23 27  1  0  0  0  0
 24 25  1  0  0  0  0
 24 46  1  0  0  0  0
 25 26  1  0  0  0  0
 26 47  1  0  0  0  0
 26 48  1  0  0  0  0
 26 49  1  0  0  0  0
 27 50  1  0  0  0  0
 27 51  1  0  0  0  0
 27 52  1  0  0  0  0
M  END
$$$$
ZINC02121919
 OpenBabel01252620473D

 57 59  0  0  1  0  0  0  0  0999 V2000
   -1.1885    3.8603   16.3542 C   0  0  0  0  0  0  0  0  0  0  0  0
   -2.3926    3.0076   16.0473 C   0  0  0  0  0  0  0  0  0  0  0  0
   -3.5002    2.8838   16.7888 C   0  0  0  0  0  0  0  0  0  0  0  0
   -4.3625    2.0352   16.2012 O   0  0  0  0  0  0  0  0  0  0  0  0
   -3.8593    1.5612   15.0430 C   0  0  0  0  0  0  0  0  0  0  0  0
   -2.5869    2.1443   14.8738 C   0  0  0  0  0  0  0  0  0  0  0  0
   -1.8172    1.8426   13.7593 C   0  0  0  0  0  0  0  0  0  0  0  0
   -2.3157    0.9559   12.8047 C   0  0  0  0  0  0  0  0  0  0  0  0
   -1.5270    0.6100   11.6181 C   0  0  0  0  0  0  0  0  0  0  0  0
   -2.0637   -0.2556   10.7211 C   0  0  0  0  0  0  0  0  0  0  0  0
   -3.3439   -0.8020   10.9526 C   0  0  0  0  0  0  0  0  0  0  0  0
   -3.8112   -1.5810   10.1415 O   0  0  0  0  0  0  0  0  0  0  0  0
   -4.0600   -0.4866   12.0424 O   0  0  0  0  0  0  0  0  0  0  0  0
   -3.5886    0.3727   12.9740 C   0  0  0  0  0  0  0  0  0  0  0  0
   -4.3478    0.6800   14.0898 C   0  0  0  0  0  0  0  0  0  0  0  0
   -5.7080    0.0563   14.2690 C   0  0  0  0  0  0  0  0  0  0  0  0
   -1.2918   -0.6371    9.4843 C   0  0  0  0  0  0  0  0  0  0  0  0
   -1.6245    0.3205    8.3692 C   0  0  0  0  0  0  0  0  0  0  0  0
   -2.4110    1.2238    8.5601 O   0  0  0  0  0  0  0  0  0  0  0  0
   -1.0481    0.1732    7.1599 N   0  0  0  0  0  0  0  0  0  0  0  0
   -1.3716    1.1041    6.0759 C   0  0  0  0  0  0  0  0  0  0  0  0
   -0.5997    0.7226    4.8391 C   0  0  0  0  0  0  0  0  0  0  0  0
    0.1471   -0.2327    4.8609 O   0  0  0  0  0  0  0  0  0  0  0  0
   -0.7392    1.4432    3.7087 N   0  0  0  0  0  0  0  0  0  0  0  0
    0.0111    1.0724    2.5063 C   0  0  1  0  0  0  0  0  0  0  0  0
    0.1037   -0.0125    2.4560 H   0  0  0  0  0  0  0  0  0  0  0  0
   -0.7288    1.5792    1.2668 C   0  0  0  0  0  0  0  0  0  0  0  0
   -0.0127    1.0858    0.0080 C   0  0  0  0  0  0  0  0  0  0  0  0
   -0.7496    3.1091    1.2752 C   0  0  0  0  0  0  0  0  0  0  0  0
    1.3840    1.6917    2.5600 C   0  0  0  0  0  0  0  0  0  0  0  0
    1.7029    2.3729    3.5056 O   0  0  0  0  0  0  0  0  0  0  0  0
   -0.1594    1.2035   11.3979 C   0  0  0  0  0  0  0  0  0  0  0  0
   -1.3251    4.8512   15.9211 H   0  0  0  0  0  0  0  0  0  0  0  0
   -1.0717    3.9488   17.4343 H   0  0  0  0  0  0  0  0  0  0  0  0
   -0.2978    3.3976   15.9291 H   0  0  0  0  0  0  0  0  0  0  0  0
   -3.6760    3.3921   17.7254 H   0  0  0  0  0  0  0  0  0  0  0  0
   -0.8424    2.2899   13.6320 H   0  0  0  0  0  0  0  0  0  0  0  0
   -5.6090   -0.8795   14.8191 H   0  0  0  0  0  0  0  0  0  0  0  0
   -6.3501    0.7388   14.8257 H   0  0  0  0  0  0  0  0  0  0  0  0
   -6.1486   -0.1414   13.2918 H   0  0  0  0  0  0  0  0  0  0  0  0
   -1.5614   -1.6501    9.1857 H   0  0  0  0  0  0  0  0  0  0  0  0
   -0.2233   -0.5926    9.6947 H   0  0  0  0  0  0  0  0  0  0  0  0
   -0.4191   -0.5493    7.0072 H   0  0  0  0  0  0  0  0  0  0  0  0
   -1.1019    2.1172    6.3745 H   0  0  0  0  0  0  0  0  0  0  0  0
   -2.4401    1.0596    5.8655 H   0  0  0  0  0  0  0  0  0  0  0  0
   -1.3365    2.2073    3.6913 H   0  0  0  0  0  0  0  0  0  0  0  0
   -1.7514    1.2020    1.2746 H   0  0  0  0  0  0  0  0  0  0  0  0
    0.0021   -0.0041    0.0020 H   0  0  0  0  0  0  0  0  0  0  0  0
    1.0099    1.4631    0.0003 H   0  0  0  0  0  0  0  0  0  0  0  0
   -0.5399    1.4469   -0.8751 H   0  0  0  0  0  0  0  0  0  0  0  0
   -1.2768    3.4701    0.3922 H   0  0  0  0  0  0  0  0  0  0  0  0
   -1.2598    3.4606    2.1720 H   0  0  0  0  0  0  0  0  0  0  0  0
    0.2730    3.4864    1.2675 H   0  0  0  0  0  0  0  0  0  0  0  0
   -0.2530    2.1341   10.8382 H   0  0  0  0  0  0  0  0  0  0  0  0
    0.3088    1.4046   12.3615 H   0  0  0  0  0  0  0  0  0  0  0  0
    0.4552    0.5011   10.8349 H   0  0  0  0  0  0  0  0  0  0  0  0
    2.2525    1.4865    1.5574 O   0  0  0  0  0  1  0  0  0  0  0  0
  1  2  1  0  0  0  0
  1 33  1  0  0  0  0
  1 34  1  0  0  0  0
  1 35  1  0  0  0  0
  2  6  1  0  0  0  0
  2  3  2  0  0  0  0
  3  4  1  0  0  0  0
  3 36  1  0  0  0  0
  4  5  1  0  0  0  0
  5 15  2  0  0  0  0
  5  6  1  0  0  0  0
  6  7  2  0  0  0  0
  7  8  1  0  0  0  0
  7 37  1  0  0  0  0
  8 14  2  0  0  0  0
  8  9  1  0  0  0  0
  9 10  2  0  0  0  0
  9 32  1  0  0  0  0
 10 11  1  0  0  0  0
 10 17  1  0  0  0  0
 11 12  2  0  0  0  0
 11 13  1  0  0  0  0
 13 14  1  0  0  0  0
 14 15  1  0  0  0  0
 15 16  1  0  0  0  0
 16 38  1  0  0  0  0
 16 39  1  0  0  0  0
 16 40  1  0  0  0  0
 17 18  1  0  0  0  0
 17 41  1  0  0  0  0
 17 42  1  0  0  0  0
 18 19  2  0  0  0  0
 18 20  1  0  0  0  0
 20 21  1  0  0  0  0
 20 43  1  0  0  0  0
 21 22  1  0  0  0  0
 21 44  1  0  0  0  0
 21 45  1  0  0  0  0
 22 23  2  0  0  0  0
 22 24  1  0  0  0  0
 24 25  1  0  0  0  0
 24 46  1  0  0  0  0
 25 26  1  6  0  0  0
 25 27  1  0  0  0  0
 25 30  1  0  0  0  0
 27 28  1  0  0  0  0
 27 29  1  0  0  0  0
 27 47  1  0  0  0  0
 28 48  1  0  0  0  0
 28 49  1  0  0  0  0
 28 50  1  0  0  0  0
 29 51  1  0  0  0  0
 29 52  1  0  0  0  0
 29 53  1  0  0  0  0
 30 31  2  0  0  0  0
 30 57  1  0  0  0  0
 32 54  1  0  0  0  0
 32 55  1  0  0  0  0
 32 56  1  0  0  0  0
M  END
$$$$
ZINC43782751
 OpenBabel01252620473D

 37 39  0  0  0  0  0  0  0  0999 V2000
    0.2686    1.3542    0.8581 C   0  0  0  0  0  0  0  0  0  0  0  0
    1.1813    2.0871    0.1160 C   0  0  0  0  0  0  0  0  0  0  0  0
    2.1186    1.4471   -0.6716 C   0  0  0  0  0  0  0  0  0  0  0  0
    2.1531    0.0628   -0.7255 C   0  0  0  0  0  0  0  0  0  0  0  0
    1.2303   -0.6857    0.0252 C   0  0  0  0  0  0  0  0  0  0  0  0
    0.2859   -0.0222    0.8191 C   0  0  0  0  0  0  0  0  0  0  0  0
    1.2553   -2.1506   -0.0230 C   0  0  0  0  0  0  0  0  0  0  0  0
    0.0937   -2.8564    0.0877 C   0  0  0  0  0  0  0  0  0  0  0  0
   -1.1626   -2.1694    0.1051 C   0  0  0  0  0  0  0  0  0  0  0  0
   -2.1593   -1.6245    0.1188 N   0  0  0  0  0  0  0  0  0  0  0  0
    0.1315   -4.3308    0.1898 C   0  0  0  0  0  0  0  0  0  0  0  0
    1.3165   -4.9430    0.1764 N   0  0  0  0  0  0  0  0  0  0  0  0
    1.4137   -6.2580    0.2645 C   0  0  0  0  0  0  0  0  0  0  0  0
    2.6223   -6.8660    0.2501 O   0  5  0  0  0  0  0  0  0  0  0  0
    0.2223   -7.0151    0.3748 C   0  0  0  0  0  0  0  0  0  0  0  0
    0.2374   -8.4108    0.4730 C   0  0  0  0  0  0  0  0  0  0  0  0
   -0.9414   -9.0906    0.5776 C   0  0  0  0  0  0  0  0  0  0  0  0
   -2.1590   -8.4139    0.5874 C   0  0  0  0  0  0  0  0  0  0  0  0
   -2.2081   -7.0552    0.4935 C   0  0  0  0  0  0  0  0  0  0  0  0
   -1.0155   -6.3248    0.3851 C   0  0  0  0  0  0  0  0  0  0  0  0
   -1.0099   -4.9884    0.2961 N   0  0  0  0  0  0  0  0  0  0  0  0
   -0.9217  -10.9768    0.7104 Br  0  0  0  0  0  0  0  0  0  0  0  0
    3.0727   -0.5667   -1.4994 O   0  0  0  0  0  0  0  0  0  0  0  0
    3.9774    0.2600   -2.2343 C   0  0  0  0  0  0  0  0  0  0  0  0
    4.9178   -0.6081   -3.0299 C   0  0  0  0  0  0  0  0  0  0  0  0
    4.8222   -1.8222   -2.9729 O   0  0  0  0  0  0  0  0  0  0  0  0
    5.7743   -0.0963   -3.7306 O   0  0  0  0  0  1  0  0  0  0  0  0
   -0.4571    1.8651    1.4736 H   0  0  0  0  0  0  0  0  0  0  0  0
    1.1594    3.1663    0.1535 H   0  0  0  0  0  0  0  0  0  0  0  0
    2.8256    2.0266   -1.2466 H   0  0  0  0  0  0  0  0  0  0  0  0
   -0.4273   -0.5890    1.3992 H   0  0  0  0  0  0  0  0  0  0  0  0
    2.1937   -2.6709   -0.1461 H   0  0  0  0  0  0  0  0  0  0  0  0
    1.1752   -8.9464    0.4657 H   0  0  0  0  0  0  0  0  0  0  0  0
   -3.0783   -8.9746    0.6704 H   0  0  0  0  0  0  0  0  0  0  0  0
   -3.1594   -6.5439    0.5020 H   0  0  0  0  0  0  0  0  0  0  0  0
    3.4143    0.9018   -2.9120 H   0  0  0  0  0  0  0  0  0  0  0  0
    4.5503    0.8767   -1.5418 H   0  0  0  0  0  0  0  0  0  0  0  0
  1  6  2  0  0  0  0
  1  2  1  0  0  0  0
  1 28  1  0  0  0  0
  2  3  2  0  0  0  0
  2 29  1  0  0  0  0
  3  4  1  0  0  0  0
  3 30  1  0  0  0  0
  4  5  2  0  0  0  0
  4 23  1  0  0  0  0
  5  6  1  0  0  0  0
  5  7  1  0  0  0  0
  6 31  1  0  0  0  0
  7  8  2  0  0  0  0
  7 32  1  0  0  0  0
  8  9  1  0  0  0  0
  8 11  1  0  0  0  0
  9 10  3  0  0  0  0
 11 21  2  0  0  0  0
 11 12  1  0  0  0  0
 12 13  2  0  0  0  0
 13 14  1  0  0  0  0
 13 15  1  0  0  0  0
 15 20  2  0  0  0  0
 15 16  1  0  0  0  0
 16 17  2  0  0  0  0
 16 33  1  0  0  0  0
 17 18  1  0  0  0  0
 17 22  1  0  0  0  0
 18 19  2  0  0  0  0
 18 34  1  0  0  0  0
 19 20  1  0  0  0  0
 19 35  1  0  0  0  0
 20 21  1  0  0  0  0
 23 24  1  0  0  0  0
 24 25  1  0  0  0  0
 24 36  1  0  0  0  0
 24 37  1  0  0  0  0
 25 26  2  0  0  0  0
 25 27  1  0  0  0  0
M  CHG  1  14  -1
M  END
$$$$
ZINC39703882
 OpenBabel01252620473D

 49 50  0  0  1  0  0  0  0  0999 V2000
   -0.0187    1.5258    0.0104 C   0  0  0  0  0  0  0  0  0  0  0  0
    0.0021   -0.0041    0.0020 C   0  0  0  0  0  0  0  0  0  0  0  0
    0.7074   -0.4901   -1.2379 C   0  0  0  0  0  0  0  0  0  0  0  0
    1.9772   -0.8287   -1.3487 C   0  0  0  0  0  0  0  0  0  0  0  0
    2.5143   -1.2799   -2.6687 C   0  0  1  0  0  0  0  0  0  0  0  0
    3.1817   -2.1277   -2.5139 H   0  0  0  0  0  0  0  0  0  0  0  0
    1.3607   -1.7040   -3.6156 C   0  0  2  0  0  0  0  0  0  0  0  0
    1.5518   -1.3929   -4.6427 H   0  0  0  0  0  0  0  0  0  0  0  0
   -0.0055   -0.7328   -2.8547 S   0  0  0  0  0  0  0  0  0  0  0  0
    1.1012   -3.1436   -3.5351 N   0  0  0  0  0  0  0  0  0  0  0  0
   -0.1655   -3.5963   -3.4521 C   0  0  0  0  0  0  0  0  0  0  0  0
   -1.0906   -2.8120   -3.4442 O   0  0  0  0  0  0  0  0  0  0  0  0
   -0.4325   -5.0772   -3.3692 C   0  0  0  0  0  0  0  0  0  0  0  0
   -2.2208   -5.3645   -3.2688 S   0  0  0  0  0  0  0  0  0  0  0  0
   -2.3664   -7.1181   -3.1789 C   0  0  0  0  0  0  0  0  0  0  0  0
   -3.5693   -7.6733   -3.0943 N   0  0  0  0  0  0  0  0  0  0  0  0
   -3.6730   -8.9961   -3.0268 C   0  0  0  0  0  0  0  0  0  0  0  0
   -4.8879   -9.5905   -2.9401 O   0  5  0  0  0  0  0  0  0  0  0  0
   -2.5063   -9.7614   -3.0473 C   0  0  0  0  0  0  0  0  0  0  0  0
   -1.3382   -9.1530   -3.1328 N   0  0  0  0  0  0  0  0  0  0  0  0
   -1.2722   -7.8695   -3.2021 N   0  0  0  0  0  0  0  0  0  0  0  0
   -2.5792  -11.2648   -2.9723 C   0  0  0  0  0  0  0  0  0  0  0  0
   -2.6741  -11.8419   -4.3860 C   0  0  0  0  0  0  0  0  0  0  0  0
   -2.7470  -13.3453   -4.3110 C   0  0  0  0  0  0  0  0  0  0  0  0
   -2.7251  -13.9034   -3.2272 O   0  0  0  0  0  0  0  0  0  0  0  0
   -2.8279  -14.0035   -5.3341 O   0  0  0  0  0  1  0  0  0  0  0  0
    3.2852   -0.1511   -3.3030 C   0  0  0  0  0  0  0  0  0  0  0  0
    2.9277    0.3035   -4.3639 O   0  0  0  0  0  0  0  0  0  0  0  0
    4.3691    0.3494   -2.6895 O   0  0  0  0  0  0  0  0  0  0  0  0
    5.0515    1.4186   -3.3478 C   0  0  0  0  0  0  0  0  0  0  0  0
    6.2513    1.8539   -2.5041 C   0  0  0  0  0  0  0  0  0  0  0  0
    1.0039    1.9031    0.0027 H   0  0  0  0  0  0  0  0  0  0  0  0
   -0.5459    1.8868   -0.8726 H   0  0  0  0  0  0  0  0  0  0  0  0
   -0.5289    1.8773    0.9072 H   0  0  0  0  0  0  0  0  0  0  0  0
    0.5293   -0.3651    0.8851 H   0  0  0  0  0  0  0  0  0  0  0  0
   -1.0205   -0.3814    0.0098 H   0  0  0  0  0  0  0  0  0  0  0  0
    2.6275   -0.7797   -0.4878 H   0  0  0  0  0  0  0  0  0  0  0  0
    1.8410   -3.7709   -3.5414 H   0  0  0  0  0  0  0  0  0  0  0  0
   -0.0349   -5.5683   -4.2574 H   0  0  0  0  0  0  0  0  0  0  0  0
    0.0513   -5.4845   -2.4815 H   0  0  0  0  0  0  0  0  0  0  0  0
   -1.6839  -11.6480   -2.4827 H   0  0  0  0  0  0  0  0  0  0  0  0
   -3.4596  -11.5577   -2.4004 H   0  0  0  0  0  0  0  0  0  0  0  0
   -3.5694  -11.4587   -4.8756 H   0  0  0  0  0  0  0  0  0  0  0  0
   -1.7936  -11.5490   -4.9580 H   0  0  0  0  0  0  0  0  0  0  0  0
    5.3975    1.0816   -4.3249 H   0  0  0  0  0  0  0  0  0  0  0  0
    4.3712    2.2608   -3.4738 H   0  0  0  0  0  0  0  0  0  0  0  0
    5.9053    2.1908   -1.5269 H   0  0  0  0  0  0  0  0  0  0  0  0
    6.9316    1.0116   -2.3781 H   0  0  0  0  0  0  0  0  0  0  0  0
    6.7718    2.6694   -3.0062 H   0  0  0  0  0  0  0  0  0  0  0  0
  1  2  1  0  0  0  0
  1 32  1  0  0  0  0
  1 33  1  0  0  0  0
  1 34  1  0  0  0  0
  2  3  1  0  0  0  0
  2 35  1  0  0  0  0
  2 36  1  0  0  0  0
  3  9  1  0  0  0  0
  3  4  2  0  0  0  0
  4  5  1  0  0  0  0
  4 37  1  0  0  0  0
  5  6  1  1  0  0  0
  5  7  1  0  0  0  0
  5 27  1  0  0  0  0
  7  8  1  6  0  0  0
  7  9  1  0  0  0  0
  7 10  1  0  0  0  0
 10 11  1  0  0  0  0
 10 38  1  0  0  0  0
 11 12  2  0  0  0  0
 11 13  1  0  0  0  0
 13 14  1  0  0  0  0
 13 39  1  0  0  0  0
 13 40  1  0  0  0  0
 14 15  1  0  0  0  0
 15 16  2  0  0  0  0
 15 21  1  0  0  0  0
 16 17  1  0  0  0  0
 17 18  1  0  0  0  0
 17 19  2  0  0  0  0
 19 20  1  0  0  0  0
 19 22  1  0  0  0  0
 20 21  2  0  0  0  0
 22 23  1  0  0  0  0
 22 41  1  0  0  0  0
 22 42  1  0  0  0  0
 23 24  1  0  0  0  0
 23 43  1  0  0  0  0
 23 44  1  0  0  0  0
 24 25  2  0  0  0  0
 24 26  1  0  0  0  0
 27 28  2  0  0  0  0
 27 29  1  0  0  0  0
 29 30  1  0  0  0  0
 30 31  1  0  0  0  0
 30 45  1  0  0  0  0
 30 46  1  0  0  0  0
 31 47  1  0  0  0  0
 31 48  1  0  0  0  0
 31 49  1  0  0  0  0
M  CHG  1  18  -1
M  END
$$$$
ZINC13016265
 OpenBabel01252620473D

 50 51  0  0  0  0  0  0  0  0999 V2000
    1.5917   10.2238  -10.9585 C   0  0  0  0  0  0  0  0  0  0  0  0
    1.8273    9.8366   -9.4972 C   0  0  0  0  0  0  0  0  0  0  0  0
    0.9455    8.6388   -9.1384 C   0  0  0  0  0  0  0  0  0  0  0  0
    1.1812    8.2515   -7.6772 C   0  0  0  0  0  0  0  0  0  0  0  0
    0.3368    7.1047   -7.3336 N   0  0  0  0  0  0  0  0  0  0  0  0
    0.3770    6.5868   -6.0900 C   0  0  0  0  0  0  0  0  0  0  0  0
    1.1137    7.0713   -5.2535 O   0  0  0  0  0  0  0  0  0  0  0  0
   -0.3998    5.5317   -5.7739 N   0  0  0  0  0  0  0  0  0  0  0  0
   -0.3596    5.0139   -4.5303 C   0  0  0  0  0  0  0  0  0  0  0  0
    0.3752    5.4971   -3.6959 O   0  0  0  0  0  0  0  0  0  0  0  0
   -1.2282    3.8341   -4.1769 C   0  0  0  0  0  0  0  0  0  0  0  0
   -0.9494    3.3760   -2.4482 S   0  0  0  0  0  0  0  0  0  0  0  0
   -2.0575    2.0130   -2.3103 C   0  0  0  0  0  0  0  0  0  0  0  0
   -2.7545    1.6656   -3.3640 N   0  0  0  0  0  0  0  0  0  0  0  0
   -3.6282    0.6321   -3.3266 C   0  0  0  0  0  0  0  0  0  0  0  0
   -4.3744    0.2664   -4.4506 C   0  0  0  0  0  0  0  0  0  0  0  0
   -5.2585   -0.8016   -4.3650 C   0  0  0  0  0  0  0  0  0  0  0  0
   -5.4040   -1.5094   -3.1647 C   0  0  0  0  0  0  0  0  0  0  0  0
   -4.6807   -1.1610   -2.0604 C   0  0  0  0  0  0  0  0  0  0  0  0
   -3.7873   -0.0921   -2.1237 C   0  0  0  0  0  0  0  0  0  0  0  0
   -2.9875    0.3164   -0.9579 C   0  0  0  0  0  0  0  0  0  0  0  0
   -3.0799   -0.2672    0.1061 O   0  0  0  0  0  0  0  0  0  0  0  0
   -2.1461    1.3646   -1.1118 N   0  0  0  0  0  0  0  0  0  0  0  0
   -1.3278    1.8115    0.0182 C   0  0  0  0  0  0  0  0  0  0  0  0
   -0.0126    1.0758    0.0080 C   0  0  0  0  0  0  0  0  0  0  0  0
    1.1129    1.7462    0.0008 C   0  0  0  0  0  0  0  0  0  0  0  0
   -6.0520   -1.1949   -5.5502 C   0  0  0  0  0  0  0  0  0  0  0  0
   -5.9291   -0.5847   -6.5930 O   0  0  0  0  0  0  0  0  0  0  0  0
    0.5438   10.4889  -11.0997 H   0  0  0  0  0  0  0  0  0  0  0  0
    2.2199   11.0771  -11.2141 H   0  0  0  0  0  0  0  0  0  0  0  0
    1.8433    9.3814  -11.6028 H   0  0  0  0  0  0  0  0  0  0  0  0
    1.5756   10.6790   -8.8529 H   0  0  0  0  0  0  0  0  0  0  0  0
    2.8752    9.5715   -9.3560 H   0  0  0  0  0  0  0  0  0  0  0  0
    1.1972    7.7964   -9.7827 H   0  0  0  0  0  0  0  0  0  0  0  0
   -0.1023    8.9039   -9.2796 H   0  0  0  0  0  0  0  0  0  0  0  0
    0.9295    9.0939   -7.0329 H   0  0  0  0  0  0  0  0  0  0  0  0
    2.2290    7.9865   -7.5360 H   0  0  0  0  0  0  0  0  0  0  0  0
   -0.2511    6.7180   -8.0012 H   0  0  0  0  0  0  0  0  0  0  0  0
   -0.9878    5.1451   -6.4416 H   0  0  0  0  0  0  0  0  0  0  0  0
   -0.9765    2.9917   -4.8212 H   0  0  0  0  0  0  0  0  0  0  0  0
   -2.2760    4.0992   -4.3181 H   0  0  0  0  0  0  0  0  0  0  0  0
   -4.2643    0.8093   -5.3776 H   0  0  0  0  0  0  0  0  0  0  0  0
   -6.0950   -2.3377   -3.1123 H   0  0  0  0  0  0  0  0  0  0  0  0
   -4.8001   -1.7124   -1.1395 H   0  0  0  0  0  0  0  0  0  0  0  0
   -1.8525    1.6048    0.9510 H   0  0  0  0  0  0  0  0  0  0  0  0
   -1.1455    2.8828   -0.0664 H   0  0  0  0  0  0  0  0  0  0  0  0
    0.0021   -0.0041    0.0020 H   0  0  0  0  0  0  0  0  0  0  0  0
    1.0982    2.8261    0.0067 H   0  0  0  0  0  0  0  0  0  0  0  0
    2.0554    1.2190   -0.0110 H   0  0  0  0  0  0  0  0  0  0  0  0
   -6.9107   -2.2297   -5.4727 O   0  0  0  0  0  1  0  0  0  0  0  0
  1  2  1  0  0  0  0
  1 29  1  0  0  0  0
  1 30  1  0  0  0  0
  1 31  1  0  0  0  0
  2  3  1  0  0  0  0
  2 32  1  0  0  0  0
  2 33  1  0  0  0  0
  3  4  1  0  0  0  0
  3 34  1  0  0  0  0
  3 35  1  0  0  0  0
  4  5  1  0  0  0  0
  4 36  1  0  0  0  0
  4 37  1  0  0  0  0
  5  6  1  0  0  0  0
  5 38  1  0  0  0  0
  6  7  2  0  0  0  0
  6  8  1  0  0  0  0
  8  9  1  0  0  0  0
  8 39  1  0  0  0  0
  9 10  2  0  0  0  0
  9 11  1  0  0  0  0
 11 12  1  0  0  0  0
 11 40  1  0  0  0  0
 11 41  1  0  0  0  0
 12 13  1  0  0  0  0
 13 23  1  0  0  0  0
 13 14  2  0  0  0  0
 14 15  1  0  0  0  0
 15 20  2  0  0  0  0
 15 16  1  0  0  0  0
 16 17  2  0  0  0  0
 16 42  1  0  0  0  0
 17 18  1  0  0  0  0
 17 27  1  0  0  0  0
 18 19  2  0  0  0  0
 18 43  1  0  0  0  0
 19 20  1  0  0  0  0
 19 44  1  0  0  0  0
 20 21  1  0  0  0  0
 21 22  2  0  0  0  0
 21 23  1  0  0  0  0
 23 24  1  0  0  0  0
 24 25  1  0  0  0  0
 24 45  1  0  0  0  0
 24 46  1  0  0  0  0
 25 26  2  0  0  0  0
 25 47  1  0  0  0  0
 26 48  1  0  0  0  0
 26 49  1  0  0  0  0
 27 28  2  0  0  0  0
 27 50  1  0  0  0  0
M  END
$$$$
ZINC37927962
 OpenBabel01252620473D

 15 14  0  0  0  0  0  0  0  0999 V2000
   -0.0187    1.5258    0.0104 C   0  0  0  0  0  0  0  0  0  0  0  0
    0.0021   -0.0041    0.0020 C   0  0  0  0  0  0  0  0  0  0  0  0
    0.7074   -0.4901   -1.2379 C   0  0  0  0  0  0  0  0  0  0  0  0
    1.1783    0.3596   -2.0872 N   0  0  0  0  0  0  0  0  0  0  0  0
    0.8467   -1.8136   -1.4598 O   0  0  0  0  0  0  0  0  0  0  0  0
    1.5259   -2.2030   -2.6552 C   0  0  0  0  0  0  0  0  0  0  0  0
    1.0039    1.9031    0.0027 H   0  0  0  0  0  0  0  0  0  0  0  0
   -0.5459    1.8868   -0.8726 H   0  0  0  0  0  0  0  0  0  0  0  0
   -0.5289    1.8773    0.9072 H   0  0  0  0  0  0  0  0  0  0  0  0
    0.5293   -0.3651    0.8851 H   0  0  0  0  0  0  0  0  0  0  0  0
   -1.0205   -0.3814    0.0098 H   0  0  0  0  0  0  0  0  0  0  0  0
    1.0782    1.3111   -1.9277 H   0  0  0  0  0  0  0  0  0  0  0  0
    0.9887   -1.8158   -3.5210 H   0  0  0  0  0  0  0  0  0  0  0  0
    2.5384   -1.7996   -2.6457 H   0  0  0  0  0  0  0  0  0  0  0  0
    1.5687   -3.2908   -2.7109 H   0  0  0  0  0  0  0  0  0  0  0  0
  1  2  1  0  0  0  0
  1  7  1  0  0  0  0
  1  8  1  0  0  0  0
  1  9  1  0  0  0  0
  2  3  1  0  0  0  0
  2 10  1  0  0  0  0
  2 11  1  0  0  0  0
  3  4  2  0  0  0  0
  3  5  1  0  0  0  0
  4 12  1  0  0  0  0
  5  6  1  0  0  0  0
  6 13  1  0  0  0  0
  6 14  1  0  0  0  0
  6 15  1  0  0  0  0
M  END
$$$$
ZINC65380329
 OpenBabel01252620473D

 41 44  0  0  1  0  0  0  0  0999 V2000
    0.2575    2.0348   -0.5383 C   0  0  0  0  0  0  0  0  0  0  0  0
    0.2326    0.2254   -0.4119 S   0  0  0  0  0  0  0  0  0  0  0  0
    1.0790   -0.2030    0.6460 O   0  0  0  0  0  0  0  0  0  0  0  0
   -1.1014   -0.2539   -0.5117 O   0  0  0  0  0  0  0  0  0  0  0  0
    0.9775   -0.3079   -1.7915 N   0  0  0  0  0  2  0  0  0  0  0  0
    1.1297   -1.6776   -2.0181 C   0  0  0  0  0  0  0  0  0  0  0  0
    0.6512   -2.5939   -1.0889 C   0  0  0  0  0  0  0  0  0  0  0  0
    0.8015   -3.9488   -1.3123 C   0  0  0  0  0  0  0  0  0  0  0  0
    1.4275   -4.3973   -2.4594 C   0  0  0  0  0  0  0  0  0  0  0  0
    1.9076   -3.4867   -3.3924 C   0  0  0  0  0  0  0  0  0  0  0  0
    1.7538   -2.1253   -3.1738 C   0  0  0  0  0  0  0  0  0  0  0  0
    2.5401   -3.9444   -4.5524 N   0  0  0  0  0  0  0  0  0  0  0  0
    2.3716   -5.2138   -4.9657 C   0  0  0  0  0  0  0  0  0  0  0  0
    2.9389   -5.5987   -5.9663 O   0  0  0  0  0  0  0  0  0  0  0  0
    1.4871   -6.1613   -4.2011 C   0  0  0  0  0  0  0  0  0  0  0  0
    1.5912   -5.8754   -2.7024 C   0  0  1  0  0  0  0  0  0  0  0  0
    0.8083   -6.4193   -2.1738 H   0  0  0  0  0  0  0  0  0  0  0  0
    2.9397   -6.3209   -2.1984 C   0  0  0  0  0  0  0  0  0  0  0  0
    4.0361   -5.4625   -2.3076 C   0  0  0  0  0  0  0  0  0  0  0  0
    5.2207   -5.8291   -1.8748 N   0  0  0  0  0  0  0  0  0  0  0  0
    5.3803   -7.0370   -1.3233 C   0  0  0  0  0  0  0  0  0  0  0  0
    6.6350   -7.4593   -0.8499 C   0  0  0  0  0  0  0  0  0  0  0  0
    6.7652   -8.6940   -0.2934 C   0  0  0  0  0  0  0  0  0  0  0  0
    5.6710   -9.5510   -0.1849 C   0  0  0  0  0  0  0  0  0  0  0  0
    4.4416   -9.1768   -0.6319 C   0  0  0  0  0  0  0  0  0  0  0  0
    4.2675   -7.9083   -1.2125 C   0  0  0  0  0  0  0  0  0  0  0  0
    3.0702   -7.5099   -1.6561 N   0  0  0  0  0  0  0  0  0  0  0  0
    1.2894    2.3806   -0.5988 H   0  0  0  0  0  0  0  0  0  0  0  0
   -0.2823    2.3440   -1.4333 H   0  0  0  0  0  0  0  0  0  0  0  0
   -0.2196    2.4671    0.3412 H   0  0  0  0  0  0  0  0  0  0  0  0
    0.1617   -2.2462   -0.1912 H   0  0  0  0  0  0  0  0  0  0  0  0
    0.4291   -4.6588   -0.5887 H   0  0  0  0  0  0  0  0  0  0  0  0
    2.1226   -1.4156   -3.8996 H   0  0  0  0  0  0  0  0  0  0  0  0
    3.1040   -3.3425   -5.0630 H   0  0  0  0  0  0  0  0  0  0  0  0
    0.4539   -6.0322   -4.5237 H   0  0  0  0  0  0  0  0  0  0  0  0
    1.8006   -7.1868   -4.3967 H   0  0  0  0  0  0  0  0  0  0  0  0
    3.9085   -4.4870   -2.7531 H   0  0  0  0  0  0  0  0  0  0  0  0
    7.4918   -6.8065   -0.9279 H   0  0  0  0  0  0  0  0  0  0  0  0
    7.7305   -9.0151    0.0692 H   0  0  0  0  0  0  0  0  0  0  0  0
    5.8011  -10.5263    0.2602 H   0  0  0  0  0  0  0  0  0  0  0  0
    3.6031   -9.8515   -0.5415 H   0  0  0  0  0  0  0  0  0  0  0  0
  1  2  1  0  0  0  0
  1 28  1  0  0  0  0
  1 29  1  0  0  0  0
  1 30  1  0  0  0  0
  2  3  2  0  0  0  0
  2  4  2  0  0  0  0
  2  5  1  0  0  0  0
  5  6  1  0  0  0  0
  6 11  2  0  0  0  0
  6  7  1  0  0  0  0
  7  8  2  0  0  0  0
  7 31  1  0  0  0  0
  8  9  1  0  0  0  0
  8 32  1  0  0  0  0
  9 16  1  0  0  0  0
  9 10  2  0  0  0  0
 10 11  1  0  0  0  0
 10 12  1  0  0  0  0
 11 33  1  0  0  0  0
 12 13  1  0  0  0  0
 12 34  1  0  0  0  0
 13 14  2  0  0  0  0
 13 15  1  0  0  0  0
 15 16  1  0  0  0  0
 15 35  1  0  0  0  0
 15 36  1  0  0  0  0
 16 17  1  1  0  0  0
 16 18  1  0  0  0  0
 18 27  2  0  0  0  0
 18 19  1  0  0  0  0
 19 20  2  0  0  0  0
 19 37  1  0  0  0  0
 20 21  1  0  0  0  0
 21 26  2  0  0  0  0
 21 22  1  0  0  0  0
 22 23  2  0  0  0  0
 22 38  1  0  0  0  0
 23 24  1  0  0  0  0
 23 39  1  0  0  0  0
 24 25  2  0  0  0  0
 24 40  1  0  0  0  0
 25 26  1  0  0  0  0
 25 41  1  0  0  0  0
 26 27  1  0  0  0  0
M  END
$$$$
ZINC35456858
 OpenBabel01252620473D

 40 41  0  0  1  0  0  0  0  0999 V2000
   -1.0735    0.4722   -0.2440 C   0  0  0  0  0  0  0  0  0  0  0  0
   -0.4841   -0.9141   -0.1992 C   0  0  0  0  0  0  0  0  0  0  0  0
   -0.3248   -1.4688    0.8623 O   0  0  0  0  0  0  0  0  0  0  0  0
   -0.1361   -1.5325   -1.3386 O   0  0  0  0  0  0  0  0  0  0  0  0
    0.4165   -2.8451   -1.2216 C   0  0  1  0  0  0  0  0  0  0  0  0
    0.0020   -3.3367   -0.3415 H   0  0  0  0  0  0  0  0  0  0  0  0
    0.0695   -3.6578   -2.4706 C   0  0  2  0  0  0  0  0  0  0  0  0
    0.7490   -3.5409   -3.3148 H   0  0  0  0  0  0  0  0  0  0  0  0
   -1.4102   -3.9006   -2.7748 C   0  0  1  0  0  0  0  0  0  0  0  0
   -1.7129   -3.9459   -3.8209 H   0  0  0  0  0  0  0  0  0  0  0  0
   -0.5488   -4.9326   -2.2850 O   0  0  0  0  0  0  0  0  0  0  0  0
   -2.4266   -3.3219   -1.8245 C   0  0  0  0  0  0  0  0  0  0  0  0
   -2.7036   -3.9655   -0.6328 C   0  0  0  0  0  0  0  0  0  0  0  0
   -3.6359   -3.4347    0.2389 C   0  0  0  0  0  0  0  0  0  0  0  0
   -4.2909   -2.2601   -0.0808 C   0  0  0  0  0  0  0  0  0  0  0  0
   -4.0132   -1.6160   -1.2720 C   0  0  0  0  0  0  0  0  0  0  0  0
   -3.0778   -2.1446   -2.1417 C   0  0  0  0  0  0  0  0  0  0  0  0
    1.9371   -2.7478   -1.0827 C   0  0  1  0  0  0  0  0  0  0  0  0
    2.3516   -2.2562   -1.9629 H   0  0  0  0  0  0  0  0  0  0  0  0
    2.2790   -1.9474    0.1475 C   0  0  0  0  0  0  0  0  0  0  0  0
    2.9082   -0.7614    0.0266 C   0  0  0  0  0  0  0  0  0  0  0  0
    3.0726    0.0684    1.1561 C   0  0  0  0  0  0  0  0  0  0  0  0
    2.6906   -0.3118    2.2566 O   0  0  0  0  0  0  0  0  0  0  0  0
    3.5974    1.1693    1.0364 O   0  0  0  0  0  1  0  0  0  0  0  0
    1.9558   -2.4169    1.3676 O   0  0  0  0  0  0  0  0  0  0  0  0
    2.7387   -3.4997    1.8743 C   0  0  0  0  0  0  0  0  0  0  0  0
    2.4897   -4.0604   -0.9658 O   0  0  0  0  0  0  0  0  0  0  0  0
   -0.2728    1.2095   -0.1856 H   0  0  0  0  0  0  0  0  0  0  0  0
   -1.6215    0.6041   -1.1770 H   0  0  0  0  0  0  0  0  0  0  0  0
   -1.7525    0.6057    0.5982 H   0  0  0  0  0  0  0  0  0  0  0  0
   -2.1919   -4.8832   -0.3831 H   0  0  0  0  0  0  0  0  0  0  0  0
   -3.8529   -3.9379    1.1696 H   0  0  0  0  0  0  0  0  0  0  0  0
   -5.0198   -1.8458    0.6000 H   0  0  0  0  0  0  0  0  0  0  0  0
   -4.5252   -0.6985   -1.5219 H   0  0  0  0  0  0  0  0  0  0  0  0
   -2.8581   -1.6394   -3.0707 H   0  0  0  0  0  0  0  0  0  0  0  0
    3.2865   -0.4463   -0.9346 H   0  0  0  0  0  0  0  0  0  0  0  0
    2.5281   -4.4009    1.2986 H   0  0  0  0  0  0  0  0  0  0  0  0
    3.7972   -3.2535    1.7896 H   0  0  0  0  0  0  0  0  0  0  0  0
    2.4881   -3.6705    2.9212 H   0  0  0  0  0  0  0  0  0  0  0  0
    2.1647   -4.5574   -0.2026 H   0  0  0  0  0  0  0  0  0  0  0  0
  1  2  1  0  0  0  0
  1 28  1  0  0  0  0
  1 29  1  0  0  0  0
  1 30  1  0  0  0  0
  2  3  2  0  0  0  0
  2  4  1  0  0  0  0
  4  5  1  0  0  0  0
  5  6  1  1  0  0  0
  5  7  1  0  0  0  0
  5 18  1  0  0  0  0
  7  8  1  6  0  0  0
  7 11  1  0  0  0  0
  7  9  1  0  0  0  0
  9 10  1  6  0  0  0
  9 11  1  0  0  0  0
  9 12  1  0  0  0  0
 12 17  2  0  0  0  0
 12 13  1  0  0  0  0
 13 14  2  0  0  0  0
 13 31  1  0  0  0  0
 14 15  1  0  0  0  0
 14 32  1  0  0  0  0
 15 16  2  0  0  0  0
 15 33  1  0  0  0  0
 16 17  1  0  0  0  0
 16 34  1  0  0  0  0
 17 35  1  0  0  0  0
 18 19  1  6  0  0  0
 18 20  1  0  0  0  0
 18 27  1  0  0  0  0
 20 21  2  0  0  0  0
 20 25  1  0  0  0  0
 21 22  1  0  0  0  0
 21 36  1  0  0  0  0
 22 23  2  0  0  0  0
 22 24  1  0  0  0  0
 25 26  1  0  0  0  0
 26 37  1  0  0  0  0
 26 38  1  0  0  0  0
 26 39  1  0  0  0  0
 27 40  1  0  0  0  0
M  END
$$$$
ZINC00005356
 OpenBabel01252620473D

 30 32  0  0  0  0  0  0  0  0999 V2000
    2.4990   -2.9413    0.8822 C   0  0  0  0  0  0  0  0  0  0  0  0
    2.8626   -2.4990   -0.3765 C   0  0  0  0  0  0  0  0  0  0  0  0
    2.8315   -1.1501   -0.6717 C   0  0  0  0  0  0  0  0  0  0  0  0
    2.4347   -0.2378    0.2970 C   0  0  0  0  0  0  0  0  0  0  0  0
    2.0753   -0.6847    1.5617 C   0  0  0  0  0  0  0  0  0  0  0  0
    2.1030   -2.0353    1.8490 C   0  0  0  0  0  0  0  0  0  0  0  0
    2.4027    1.1306    0.0010 N   0  0  0  0  0  0  0  0  0  0  0  0
    1.2079    1.6952   -0.4250 C   0  0  0  0  0  0  0  0  0  0  0  0
    0.1443    0.8993   -0.8252 C   0  0  0  0  0  0  0  0  0  0  0  0
   -1.0375    1.4839   -1.2354 C   0  0  0  0  0  0  0  0  0  0  0  0
   -1.1818    2.8628   -1.2423 C   0  0  0  0  0  0  0  0  0  0  0  0
   -0.1363    3.6735   -0.8521 C   0  0  0  0  0  0  0  0  0  0  0  0
    1.0650    3.0953   -0.4453 C   0  0  0  0  0  0  0  0  0  0  0  0
    2.2149    3.9169   -0.0335 C   0  0  0  0  0  0  0  0  0  0  0  0
    2.0683    5.0265    0.4342 O   0  0  0  0  0  0  0  0  0  0  0  0
    3.5907    3.3100   -0.2223 C   0  0  0  0  0  0  0  0  0  0  0  0
    3.5278    1.8488    0.1394 C   0  0  0  0  0  0  0  0  0  0  0  0
    4.5235    1.3056    0.5688 O   0  5  0  0  0  0  0  0  0  0  0  0
    4.0165    3.4603   -1.6601 C   0  0  0  0  0  0  0  0  0  0  0  0
    5.0176    4.0785   -1.9319 O   0  0  0  0  0  0  0  0  0  0  0  0
    2.5241   -3.9966    1.1106 H   0  0  0  0  0  0  0  0  0  0  0  0
    3.1714   -3.2090   -1.1294 H   0  0  0  0  0  0  0  0  0  0  0  0
    3.1152   -0.8053   -1.6551 H   0  0  0  0  0  0  0  0  0  0  0  0
    1.7705    0.0228    2.3187 H   0  0  0  0  0  0  0  0  0  0  0  0
    1.8193   -2.3839    2.8310 H   0  0  0  0  0  0  0  0  0  0  0  0
    0.2421   -0.1763   -0.8201 H   0  0  0  0  0  0  0  0  0  0  0  0
   -1.8605    0.8596   -1.5506 H   0  0  0  0  0  0  0  0  0  0  0  0
   -2.1151    3.3042   -1.5591 H   0  0  0  0  0  0  0  0  0  0  0  0
   -0.2477    4.7477   -0.8614 H   0  0  0  0  0  0  0  0  0  0  0  0
    3.4154    3.0069   -2.4620 H   0  0  0  0  0  0  0  0  0  0  0  0
  1  6  2  0  0  0  0
  1  2  1  0  0  0  0
  1 21  1  0  0  0  0
  2  3  2  0  0  0  0
  2 22  1  0  0  0  0
  3  4  1  0  0  0  0
  3 23  1  0  0  0  0
  4  5  2  0  0  0  0
  4  7  1  0  0  0  0
  5  6  1  0  0  0  0
  5 24  1  0  0  0  0
  6 25  1  0  0  0  0
  7 17  1  0  0  0  0
  7  8  1  0  0  0  0
  8 13  2  0  0  0  0
  8  9  1  0  0  0  0
  9 10  2  0  0  0  0
  9 26  1  0  0  0  0
 10 11  1  0  0  0  0
 10 27  1  0  0  0  0
 11 12  2  0  0  0  0
 11 28  1  0  0  0  0
 12 13  1  0  0  0  0
 12 29  1  0  0  0  0
 13 14  1  0  0  0  0
 14 15  2  0  0  0  0
 14 16  1  0  0  0  0
 16 17  2  0  0  0  0
 16 19  1  0  0  0  0
 17 18  1  0  0  0  0
 19 20  2  0  0  0  0
 19 30  1  0  0  0  0
M  CHG  1  18  -1
M  END
$$$$
ZINC55321156
 OpenBabel01252620473D

 44 45  0  0  0  0  0  0  0  0999 V2000
    0.8713    1.2929   -0.1024 C   0  0  0  0  0  0  0  0  0  0  0  0
    0.4256   -0.1021   -0.0623 N   0  0  0  0  0  0  0  0  0  0  0  0
    0.5531   -0.8765    1.1748 C   0  0  0  0  0  0  0  0  0  0  0  0
   -0.6986   -0.7167    1.9987 C   0  0  0  0  0  0  0  0  0  0  0  0
   -0.7928    0.3126    2.9188 C   0  0  0  0  0  0  0  0  0  0  0  0
   -1.9384    0.4666    3.6787 C   0  0  0  0  0  0  0  0  0  0  0  0
   -2.9953   -0.4068    3.5238 C   0  0  0  0  0  0  0  0  0  0  0  0
   -2.9068   -1.4470    2.5976 C   0  0  0  0  0  0  0  0  0  0  0  0
   -1.7501   -1.5933    1.8299 C   0  0  0  0  0  0  0  0  0  0  0  0
   -4.0352   -2.3868    2.4266 C   0  0  0  0  0  0  0  0  0  0  0  0
   -3.9554   -3.2919    1.6192 O   0  0  0  0  0  0  0  0  0  0  0  0
   -5.1525   -2.2400    3.1661 N   0  0  0  0  0  0  0  0  0  0  0  0
   -0.1016   -0.6730   -1.1634 C   0  0  0  0  0  0  0  0  0  0  0  0
   -0.5588   -1.7982   -1.1052 O   0  0  0  0  0  0  0  0  0  0  0  0
   -0.1240    0.0673   -2.4395 C   0  0  0  0  0  0  0  0  0  0  0  0
    0.9974    0.7924   -2.8500 C   0  0  0  0  0  0  0  0  0  0  0  0
    0.9691    1.4840   -4.0485 C   0  0  0  0  0  0  0  0  0  0  0  0
   -0.1723    1.4581   -4.8434 C   0  0  0  0  0  0  0  0  0  0  0  0
   -1.2835    0.7438   -4.4438 C   0  0  0  0  0  0  0  0  0  0  0  0
   -1.2677    0.0417   -3.2480 C   0  0  0  0  0  0  0  0  0  0  0  0
   -2.3598   -0.6649   -2.8594 O   0  0  0  0  0  0  0  0  0  0  0  0
    2.0913    2.2114   -4.4615 N   0  0  0  0  0  2  0  0  0  0  0  0
    2.0595    3.0396   -5.8952 S   0  0  0  0  0  0  0  0  0  0  0  0
    1.9189    2.0356   -6.8909 O   0  0  0  0  0  0  0  0  0  0  0  0
    1.0566    4.0308   -5.7192 O   0  0  0  0  0  0  0  0  0  0  0  0
    3.6929    3.8187   -6.0198 C   0  0  0  0  0  0  0  0  0  0  0  0
    1.9007    1.3354   -0.4582 H   0  0  0  0  0  0  0  0  0  0  0  0
    0.2299    1.8600   -0.7771 H   0  0  0  0  0  0  0  0  0  0  0  0
    0.8147    1.7213    0.8983 H   0  0  0  0  0  0  0  0  0  0  0  0
    0.6958   -1.9293    0.9313 H   0  0  0  0  0  0  0  0  0  0  0  0
    1.4105   -0.5154    1.7428 H   0  0  0  0  0  0  0  0  0  0  0  0
    0.0319    0.9986    3.0444 H   0  0  0  0  0  0  0  0  0  0  0  0
   -2.0056    1.2720    4.3951 H   0  0  0  0  0  0  0  0  0  0  0  0
   -3.8889   -0.2859    4.1182 H   0  0  0  0  0  0  0  0  0  0  0  0
   -1.6771   -2.3935    1.1083 H   0  0  0  0  0  0  0  0  0  0  0  0
   -5.2162   -1.5178    3.8104 H   0  0  0  0  0  0  0  0  0  0  0  0
   -5.8928   -2.8566    3.0539 H   0  0  0  0  0  0  0  0  0  0  0  0
    1.8839    0.8134   -2.2335 H   0  0  0  0  0  0  0  0  0  0  0  0
   -0.1890    1.9998   -5.7776 H   0  0  0  0  0  0  0  0  0  0  0  0
   -2.1661    0.7281   -5.0660 H   0  0  0  0  0  0  0  0  0  0  0  0
   -2.9882   -0.1571   -2.3281 H   0  0  0  0  0  0  0  0  0  0  0  0
    4.4641    3.0484   -6.0161 H   0  0  0  0  0  0  0  0  0  0  0  0
    3.7536    4.3892   -6.9466 H   0  0  0  0  0  0  0  0  0  0  0  0
    3.8426    4.4867   -5.1716 H   0  0  0  0  0  0  0  0  0  0  0  0
  1  2  1  0  0  0  0
  1 27  1  0  0  0  0
  1 28  1  0  0  0  0
  1 29  1  0  0  0  0
  2  3  1  0  0  0  0
  2 13  1  0  0  0  0
  3  4  1  0  0  0  0
  3 30  1  0  0  0  0
  3 31  1  0  0  0  0
  4  9  2  0  0  0  0
  4  5  1  0  0  0  0
  5  6  2  0  0  0  0
  5 32  1  0  0  0  0
  6  7  1  0  0  0  0
  6 33  1  0  0  0  0
  7  8  2  0  0  0  0
  7 34  1  0  0  0  0
  8  9  1  0  0  0  0
  8 10  1  0  0  0  0
  9 35  1  0  0  0  0
 10 11  2  0  0  0  0
 10 12  1  0  0  0  0
 12 36  1  0  0  0  0
 12 37  1  0  0  0  0
 13 14  2  0  0  0  0
 13 15  1  0  0  0  0
 15 20  2  0  0  0  0
 15 16  1  0  0  0  0
 16 17  2  0  0  0  0
 16 38  1  0  0  0  0
 17 18  1  0  0  0  0
 17 22  1  0  0  0  0
 18 19  2  0  0  0  0
 18 39  1  0  0  0  0
 19 20  1  0  0  0  0
 19 40  1  0  0  0  0
 20 21  1  0  0  0  0
 21 41  1  0  0  0  0
 22 23  1  0  0  0  0
 23 24  2  0  0  0  0
 23 25  2  0  0  0  0
 23 26  1  0  0  0  0
 26 42  1  0  0  0  0
 26 43  1  0  0  0  0
 26 44  1  0  0  0  0
M  END
$$$$
ZINC43508528
 OpenBabel01252620473D

 28 29  0  0  1  0  0  0  0  0999 V2000
   -0.0166    1.3745    0.0096 C   0  0  0  0  0  0  0  0  0  0  0  0
    1.3142    1.8035   -0.0008 C   0  0  0  0  0  0  0  0  0  0  0  0
    2.1052    0.7039   -0.0143 C   0  0  0  0  0  0  0  0  0  0  0  0
    1.3201   -0.4008   -0.0127 N   0  0  0  0  0  2  0  0  0  0  0  0
    0.0021   -0.0041    0.0020 C   0  0  0  0  0  0  0  0  0  0  0  0
   -1.1691   -0.8871    0.0089 C   0  0  0  0  0  0  0  0  0  0  0  0
   -2.2894   -0.4118    0.0225 O   0  0  0  0  0  0  0  0  0  0  0  0
   -1.0046   -2.2247    0.0001 N   0  0  0  0  0  0  0  0  0  0  0  0
   -2.1744   -3.1066    0.0069 C   0  0  2  0  0  0  0  0  0  0  0  0
   -1.7090   -4.5717    0.0431 C   0  0  0  0  0  0  0  0  0  0  0  0
   -1.1261   -4.9294   -1.3539 C   0  0  0  0  0  0  0  0  0  0  0  0
   -2.3395   -4.0831   -2.4522 S   0  0  0  0  0  0  0  0  0  0  0  0
   -3.0174   -2.8520   -1.2659 C   0  0  0  0  0  0  0  0  0  0  0  0
   -3.0109   -2.8185    1.2269 C   0  0  0  0  0  0  0  0  0  0  0  0
   -2.6551   -1.9659    2.0226 O   0  0  0  0  0  0  0  0  0  0  0  0
   -4.0435   -3.4379    1.4183 O   0  0  0  0  0  1  0  0  0  0  0  0
    1.7766    3.2095    0.0019 N   0  0  0  0  0  4  0  0  0  0  0  0
    0.9709    4.1108    0.0140 O   0  0  0  0  0  0  0  0  0  0  0  0
    2.9600    3.4567   -0.0080 O   0  5  0  0  0  0  0  0  0  0  0  0
   -0.8938    2.0043    0.0253 H   0  0  0  0  0  0  0  0  0  0  0  0
    3.1851    0.7071   -0.0249 H   0  0  0  0  0  0  0  0  0  0  0  0
   -0.1117   -2.6035   -0.0108 H   0  0  0  0  0  0  0  0  0  0  0  0
   -0.9398   -4.6949    0.8055 H   0  0  0  0  0  0  0  0  0  0  0  0
   -2.5553   -5.2215    0.2662 H   0  0  0  0  0  0  0  0  0  0  0  0
   -0.1251   -4.5169   -1.4807 H   0  0  0  0  0  0  0  0  0  0  0  0
   -1.1299   -6.0068   -1.5186 H   0  0  0  0  0  0  0  0  0  0  0  0
   -4.0736   -3.0409   -1.0741 H   0  0  0  0  0  0  0  0  0  0  0  0
   -2.8657   -1.8371   -1.6333 H   0  0  0  0  0  0  0  0  0  0  0  0
  1  5  2  0  0  0  0
  1  2  1  0  0  0  0
  1 20  1  0  0  0  0
  2  3  2  0  0  0  0
  2 17  1  0  0  0  0
  3  4  1  0  0  0  0
  3 21  1  0  0  0  0
  4  5  1  0  0  0  0
  5  6  1  0  0  0  0
  6  7  2  0  0  0  0
  6  8  1  0  0  0  0
  8  9  1  0  0  0  0
  8 22  1  0  0  0  0
  9 13  1  0  0  0  0
  9 10  1  0  0  0  0
  9 14  1  1  0  0  0
 10 11  1  0  0  0  0
 10 23  1  0  0  0  0
 10 24  1  0  0  0  0
 11 12  1  0  0  0  0
 11 25  1  0  0  0  0
 11 26  1  0  0  0  0
 12 13  1  0  0  0  0
 13 27  1  0  0  0  0
 13 28  1  0  0  0  0
 14 15  2  0  0  0  0
 14 16  1  0  0  0  0
 17 18  2  0  0  0  0
 17 19  1  0  0  0  0
M  CHG  1  19  -1
M  END
$$$$
ZINC08993513
 OpenBabel01252620473D

 54 58  0  0  0  0  0  0  0  0999 V2000
   -8.6160   -1.5398   -3.4683 C   0  0  0  0  0  0  0  0  0  0  0  0
   -8.2863   -0.3050   -2.9335 C   0  0  0  0  0  0  0  0  0  0  0  0
   -7.5115   -0.2707   -1.7769 C   0  0  0  0  0  0  0  0  0  0  0  0
   -7.1098   -1.4682   -1.1992 C   0  0  0  0  0  0  0  0  0  0  0  0
   -7.4500   -2.6218   -1.7381 N   0  0  0  0  0  0  0  0  0  0  0  0
   -8.1781   -2.6882   -2.8357 C   0  0  0  0  0  0  0  0  0  0  0  0
   -7.1479    0.9520   -1.2021 N   0  0  0  0  0  0  0  0  0  0  0  0
   -6.4890    0.9745   -0.0266 C   0  0  0  0  0  0  0  0  0  0  0  0
   -7.3357    1.3095    1.4231 S   0  0  0  0  0  0  0  0  0  0  0  0
   -5.1634    0.7333    0.0076 N   0  0  0  0  0  0  0  0  0  0  0  0
   -4.4453    0.6429    1.2880 C   0  0  0  0  0  0  0  0  0  0  0  0
   -3.2267    1.5701    1.2293 C   0  0  0  0  0  0  0  0  0  0  0  0
   -2.4243    1.2443    0.0428 N   0  0  0  0  0  0  0  0  0  0  0  0
   -3.1797    1.4848   -1.1939 C   0  0  0  0  0  0  0  0  0  0  0  0
   -4.3964    0.5541   -1.2345 C   0  0  0  0  0  0  0  0  0  0  0  0
   -1.2253    1.9530    0.0411 C   0  0  0  0  0  0  0  0  0  0  0  0
   -1.2460    3.3385    0.0430 C   0  0  0  0  0  0  0  0  0  0  0  0
   -0.0507    4.0473    0.0355 C   0  0  0  0  0  0  0  0  0  0  0  0
    1.1665    3.3414    0.0325 C   0  0  0  0  0  0  0  0  0  0  0  0
    1.1716    1.9445    0.0365 C   0  0  0  0  0  0  0  0  0  0  0  0
   -0.0114    1.2612    0.0434 C   0  0  0  0  0  0  0  0  0  0  0  0
   -0.0074   -0.0898    0.0468 F   0  0  0  0  0  0  0  0  0  0  0  0
    2.4249    4.1058    0.0246 C   0  0  0  0  0  0  0  0  0  0  0  0
    3.5077    3.5461    0.0221 O   0  0  0  0  0  0  0  0  0  0  0  0
    2.3207    5.5745    0.0199 C   0  0  0  0  0  0  0  0  0  0  0  0
    1.0690    6.1550    0.0234 C   0  0  0  0  0  0  0  0  0  0  0  0
   -0.0551    5.4264    0.0307 N   0  0  0  0  0  0  0  0  0  0  0  0
   -1.3434    6.1240    0.0341 C   0  0  0  0  0  0  0  0  0  0  0  0
   -1.3200    7.6512   -0.0560 C   0  0  0  0  0  0  0  0  0  0  0  0
   -1.6864    6.9681    1.2632 C   0  0  0  0  0  0  0  0  0  0  0  0
    3.5304    6.4087    0.0119 C   0  0  0  0  0  0  0  0  0  0  0  0
    4.6285    5.8870    0.0088 O   0  0  0  0  0  0  0  0  0  0  0  0
   -9.2118   -1.6044   -4.3667 H   0  0  0  0  0  0  0  0  0  0  0  0
   -8.6185    0.6084   -3.4042 H   0  0  0  0  0  0  0  0  0  0  0  0
   -6.5124   -1.4539   -0.2996 H   0  0  0  0  0  0  0  0  0  0  0  0
   -8.4361   -3.6534   -3.2459 H   0  0  0  0  0  0  0  0  0  0  0  0
   -7.3701    1.7835   -1.6495 H   0  0  0  0  0  0  0  0  0  0  0  0
   -4.1170   -0.3835    1.4520 H   0  0  0  0  0  0  0  0  0  0  0  0
   -5.1015    0.9517    2.1017 H   0  0  0  0  0  0  0  0  0  0  0  0
   -2.6222    1.4335    2.1260 H   0  0  0  0  0  0  0  0  0  0  0  0
   -3.5604    2.6060    1.1695 H   0  0  0  0  0  0  0  0  0  0  0  0
   -3.5141    2.5219   -1.2200 H   0  0  0  0  0  0  0  0  0  0  0  0
   -2.5411    1.2863   -2.0547 H   0  0  0  0  0  0  0  0  0  0  0  0
   -4.0633   -0.4808   -1.3130 H   0  0  0  0  0  0  0  0  0  0  0  0
   -5.0231    0.8030   -2.0909 H   0  0  0  0  0  0  0  0  0  0  0  0
   -2.1883    3.8660    0.0458 H   0  0  0  0  0  0  0  0  0  0  0  0
    2.1079    1.4063    0.0346 H   0  0  0  0  0  0  0  0  0  0  0  0
    0.9929    7.2323    0.0199 H   0  0  0  0  0  0  0  0  0  0  0  0
   -2.1616    5.6026   -0.4627 H   0  0  0  0  0  0  0  0  0  0  0  0
   -0.3462    8.1369   -0.1177 H   0  0  0  0  0  0  0  0  0  0  0  0
   -2.1230    8.1348   -0.6122 H   0  0  0  0  0  0  0  0  0  0  0  0
   -2.7304    7.0024    1.5747 H   0  0  0  0  0  0  0  0  0  0  0  0
   -0.9536    7.0044    2.0693 H   0  0  0  0  0  0  0  0  0  0  0  0
    3.4226    7.7525    0.0081 O   0  0  0  0  0  1  0  0  0  0  0  0
  1  6  2  0  0  0  0
  1  2  1  0  0  0  0
  1 33  1  0  0  0  0
  2  3  2  0  0  0  0
  2 34  1  0  0  0  0
  3  4  1  0  0  0  0
  3  7  1  0  0  0  0
  4  5  2  0  0  0  0
  4 35  1  0  0  0  0
  5  6  1  0  0  0  0
  6 36  1  0  0  0  0
  7  8  1  0  0  0  0
  7 37  1  0  0  0  0
  8  9  2  0  0  0  0
  8 10  1  0  0  0  0
 10 15  1  0  0  0  0
 10 11  1  0  0  0  0
 11 12  1  0  0  0  0
 11 38  1  0  0  0  0
 11 39  1  0  0  0  0
 12 13  1  0  0  0  0
 12 40  1  0  0  0  0
 12 41  1  0  0  0  0
 13 14  1  0  0  0  0
 13 16  1  0  0  0  0
 14 15  1  0  0  0  0
 14 42  1  0  0  0  0
 14 43  1  0  0  0  0
 15 44  1  0  0  0  0
 15 45  1  0  0  0  0
 16 21  2  0  0  0  0
 16 17  1  0  0  0  0
 17 18  2  0  0  0  0
 17 46  1  0  0  0  0
 18 27  1  0  0  0  0
 18 19  1  0  0  0  0
 19 20  2  0  0  0  0
 19 23  1  0  0  0  0
 20 21  1  0  0  0  0
 20 47  1  0  0  0  0
 21 22  1  0  0  0  0
 23 24  2  0  0  0  0
 23 25  1  0  0  0  0
 25 26  2  0  0  0  0
 25 31  1  0  0  0  0
 26 27  1  0  0  0  0
 26 48  1  0  0  0  0
 27 28  1  0  0  0  0
 28 30  1  0  0  0  0
 28 29  1  0  0  0  0
 28 49  1  0  0  0  0
 29 30  1  0  0  0  0
 29 50  1  0  0  0  0
 29 51  1  0  0  0  0
 30 52  1  0  0  0  0
 30 53  1  0  0  0  0
 31 32  2  0  0  0  0
 31 54  1  0  0  0  0
M  END
$$$$
ZINC47919586
 OpenBabel01252620473D

 41 43  0  0  0  0  0  0  0  0999 V2000
   -1.2481    1.1547   -0.1456 C   0  0  0  0  0  0  0  0  0  0  0  0
   -0.5795   -0.1466   -0.0712 N   0  0  0  0  0  0  0  0  0  0  0  0
   -0.4443   -0.8281    1.2186 C   0  0  0  0  0  0  0  0  0  0  0  0
   -1.6606   -1.7268    1.4506 C   0  0  0  0  0  0  0  0  0  0  0  0
   -2.5697   -1.3934    2.6352 C   0  0  0  0  0  0  0  0  0  0  0  0
   -1.6539   -2.6175    2.6945 C   0  0  0  0  0  0  0  0  0  0  0  0
   -0.0887   -0.7170   -1.1894 C   0  0  0  0  0  0  0  0  0  0  0  0
    0.3702   -1.8415   -1.1467 O   0  0  0  0  0  0  0  0  0  0  0  0
   -0.1087    0.0264   -2.4696 C   0  0  0  0  0  0  0  0  0  0  0  0
    0.0903    1.4128   -2.4716 C   0  0  0  0  0  0  0  0  0  0  0  0
    0.0758    2.1155   -3.6421 C   0  0  0  0  0  0  0  0  0  0  0  0
   -0.1388    1.4506   -4.8489 C   0  0  0  0  0  0  0  0  0  0  0  0
   -0.3413    0.0522   -4.8645 C   0  0  0  0  0  0  0  0  0  0  0  0
   -0.3189   -0.6569   -3.6601 C   0  0  0  0  0  0  0  0  0  0  0  0
   -0.5481   -0.5716   -6.0482 N   0  0  0  0  0  0  0  0  0  0  0  0
   -0.5650    0.0906   -7.1786 C   0  0  0  0  0  0  0  0  0  0  0  0
   -0.8419   -0.8032   -8.6716 S   0  0  0  0  0  1  0  0  0  0  0  0
   -0.3783    1.4412   -7.2535 N   0  0  0  0  0  0  0  0  0  0  0  0
   -0.1628    2.1686   -6.1332 C   0  0  0  0  0  0  0  0  0  0  0  0
    0.0046    3.3729   -6.1857 O   0  0  0  0  0  0  0  0  0  0  0  0
   -0.4112    2.1080   -8.5575 C   0  0  0  0  0  0  0  0  0  0  0  0
   -1.8221    2.5378   -8.8666 C   0  0  0  0  0  0  0  0  0  0  0  0
   -2.0773    3.7900   -9.1543 C   0  0  0  0  0  0  0  0  0  0  0  0
   -0.5306    1.9450    0.0749 H   0  0  0  0  0  0  0  0  0  0  0  0
   -1.6513    1.2993   -1.1479 H   0  0  0  0  0  0  0  0  0  0  0  0
   -2.0601    1.1881    0.5809 H   0  0  0  0  0  0  0  0  0  0  0  0
    0.4609   -1.4353    1.2156 H   0  0  0  0  0  0  0  0  0  0  0  0
   -0.3824   -0.0875    2.0160 H   0  0  0  0  0  0  0  0  0  0  0  0
   -2.1310   -2.1228    0.5506 H   0  0  0  0  0  0  0  0  0  0  0  0
   -2.3013   -0.5337    3.2492 H   0  0  0  0  0  0  0  0  0  0  0  0
   -3.6386   -1.5698    2.5146 H   0  0  0  0  0  0  0  0  0  0  0  0
   -2.1202   -3.5994    2.6130 H   0  0  0  0  0  0  0  0  0  0  0  0
   -0.7829   -2.5633    3.3477 H   0  0  0  0  0  0  0  0  0  0  0  0
    0.2563    1.9307   -1.5386 H   0  0  0  0  0  0  0  0  0  0  0  0
    0.2298    3.1844   -3.6333 H   0  0  0  0  0  0  0  0  0  0  0  0
   -0.4679   -1.7266   -3.6551 H   0  0  0  0  0  0  0  0  0  0  0  0
    0.2384    2.9831   -8.5346 H   0  0  0  0  0  0  0  0  0  0  0  0
   -0.0646    1.4183   -9.3271 H   0  0  0  0  0  0  0  0  0  0  0  0
   -2.6230    1.8133   -8.8508 H   0  0  0  0  0  0  0  0  0  0  0  0
   -3.0885    4.0980   -9.3758 H   0  0  0  0  0  0  0  0  0  0  0  0
   -1.2765    4.5145   -9.1701 H   0  0  0  0  0  0  0  0  0  0  0  0
  1  2  1  0  0  0  0
  1 24  1  0  0  0  0
  1 25  1  0  0  0  0
  1 26  1  0  0  0  0
  2  3  1  0  0  0  0
  2  7  1  0  0  0  0
  3  4  1  0  0  0  0
  3 27  1  0  0  0  0
  3 28  1  0  0  0  0
  4  6  1  0  0  0  0
  4  5  1  0  0  0  0
  4 29  1  0  0  0  0
  5  6  1  0  0  0  0
  5 30  1  0  0  0  0
  5 31  1  0  0  0  0
  6 32  1  0  0  0  0
  6 33  1  0  0  0  0
  7  8  2  0  0  0  0
  7  9  1  0  0  0  0
  9 14  2  0  0  0  0
  9 10  1  0  0  0  0
 10 11  2  0  0  0  0
 10 34  1  0  0  0  0
 11 12  1  0  0  0  0
 11 35  1  0  0  0  0
 12 19  1  0  0  0  0
 12 13  2  0  0  0  0
 13 14  1  0  0  0  0
 13 15  1  0  0  0  0
 14 36  1  0  0  0  0
 15 16  2  0  0  0  0
 16 17  1  0  0  0  0
 16 18  1  0  0  0  0
 18 19  1  0  0  0  0
 18 21  1  0  0  0  0
 19 20  2  0  0  0  0
 21 22  1  0  0  0  0
 21 37  1  0  0  0  0
 21 38  1  0  0  0  0
 22 23  2  0  0  0  0
 22 39  1  0  0  0  0
 23 40  1  0  0  0  0
 23 41  1  0  0  0  0
M  END
$$$$
ZINC12821841
 OpenBabel01252620473D

 43 45  0  0  0  0  0  0  0  0999 V2000
   -1.8592    2.2376   -0.6086 C   0  0  0  0  0  0  0  0  0  0  0  0
   -0.7222    1.5870   -0.1703 C   0  0  0  0  0  0  0  0  0  0  0  0
    0.4578    2.2898   -0.0036 C   0  0  0  0  0  0  0  0  0  0  0  0
    0.5013    3.6473   -0.2697 C   0  0  0  0  0  0  0  0  0  0  0  0
   -0.6337    4.3040   -0.7027 C   0  0  0  0  0  0  0  0  0  0  0  0
   -1.8199    3.6008   -0.8710 C   0  0  0  0  0  0  0  0  0  0  0  0
   -2.9700    4.2628   -1.3089 N   0  0  0  0  0  2  0  0  0  0  0  0
   -3.9016    3.5997   -2.5068 S   0  0  0  0  0  0  0  0  0  0  0  0
   -4.1935    2.2685   -2.1042 O   0  0  0  0  0  0  0  0  0  0  0  0
   -4.9190    4.5469   -2.8013 O   0  0  0  0  0  0  0  0  0  0  0  0
   -2.8923    3.4807   -3.9461 C   0  0  0  0  0  0  0  0  0  0  0  0
   -2.5701    2.2658   -4.4964 C   0  0  0  0  0  0  0  0  0  0  0  0
   -1.7881    2.2268   -5.6075 C   0  0  0  0  0  0  0  0  0  0  0  0
   -1.4709    3.9008   -5.9276 S   0  0  0  0  0  0  0  0  0  0  0  0
   -2.3933    4.6114   -4.5759 C   0  0  0  0  0  0  0  0  0  0  0  0
   -2.5745    6.0204   -4.2222 C   0  0  0  0  0  0  0  0  0  0  0  0
   -3.1558    6.3201   -3.1968 O   0  0  0  0  0  0  0  0  0  0  0  0
   -2.0967    6.9863   -5.0337 O   0  0  0  0  0  1  0  0  0  0  0  0
    2.0061    4.5386   -0.0554 S   0  0  0  0  0  0  0  0  0  0  0  0
    1.7236    5.8946   -0.3725 O   0  0  0  0  0  0  0  0  0  0  0  0
    2.5356    4.1448    1.2031 O   0  0  0  0  0  0  0  0  0  0  0  0
    3.0656    3.9943   -1.2059 N   0  0  0  0  0  0  0  0  0  0  0  0
    4.0682    2.9721   -0.8764 C   0  0  0  0  0  0  0  0  0  0  0  0
    3.9356    1.8164   -1.8798 C   0  0  0  0  0  0  0  0  0  0  0  0
    4.0458    2.3687   -3.3028 C   0  0  0  0  0  0  0  0  0  0  0  0
    2.9075    3.3596   -3.5568 C   0  0  0  0  0  0  0  0  0  0  0  0
    3.0248    4.5288   -2.5739 C   0  0  0  0  0  0  0  0  0  0  0  0
    1.8867    1.4674    0.5400 Cl  0  0  0  0  0  0  0  0  0  0  0  0
   -2.7789    1.6876   -0.7428 H   0  0  0  0  0  0  0  0  0  0  0  0
   -0.7533    0.5277    0.0381 H   0  0  0  0  0  0  0  0  0  0  0  0
   -0.5993    5.3634   -0.9099 H   0  0  0  0  0  0  0  0  0  0  0  0
   -2.9335    1.3511   -4.0517 H   0  0  0  0  0  0  0  0  0  0  0  0
   -1.4466    1.3623   -6.1574 H   0  0  0  0  0  0  0  0  0  0  0  0
    5.0746    3.4114   -0.9411 H   0  0  0  0  0  0  0  0  0  0  0  0
    3.8940    2.6036    0.1453 H   0  0  0  0  0  0  0  0  0  0  0  0
    4.7385    1.0851   -1.7049 H   0  0  0  0  0  0  0  0  0  0  0  0
    2.9591    1.3272   -1.7487 H   0  0  0  0  0  0  0  0  0  0  0  0
    5.0114    2.8817   -3.4232 H   0  0  0  0  0  0  0  0  0  0  0  0
    3.9781    1.5407   -4.0238 H   0  0  0  0  0  0  0  0  0  0  0  0
    2.9735    3.7374   -4.5878 H   0  0  0  0  0  0  0  0  0  0  0  0
    1.9416    2.8533   -3.4129 H   0  0  0  0  0  0  0  0  0  0  0  0
    2.1561    5.1950   -2.6815 H   0  0  0  0  0  0  0  0  0  0  0  0
    3.9471    5.0936   -2.7746 H   0  0  0  0  0  0  0  0  0  0  0  0
  1  6  2  0  0  0  0
  1  2  1  0  0  0  0
  1 29  1  0  0  0  0
  2  3  2  0  0  0  0
  2 30  1  0  0  0  0
  3  4  1  0  0  0  0
  3 28  1  0  0  0  0
  4  5  2  0  0  0  0
  4 19  1  0  0  0  0
  5  6  1  0  0  0  0
  5 31  1  0  0  0  0
  6  7  1  0  0  0  0
  7  8  1  0  0  0  0
  8  9  2  0  0  0  0
  8 10  2  0  0  0  0
  8 11  1  0  0  0  0
 11 15  2  0  0  0  0
 11 12  1  0  0  0  0
 12 13  2  0  0  0  0
 12 32  1  0  0  0  0
 13 14  1  0  0  0  0
 13 33  1  0  0  0  0
 14 15  1  0  0  0  0
 15 16  1  0  0  0  0
 16 17  2  0  0  0  0
 16 18  1  0  0  0  0
 19 20  2  0  0  0  0
 19 21  2  0  0  0  0
 19 22  1  0  0  0  0
 22 27  1  0  0  0  0
 22 23  1  0  0  0  0
 23 24  1  0  0  0  0
 23 34  1  0  0  0  0
 23 35  1  0  0  0  0
 24 25  1  0  0  0  0
 24 36  1  0  0  0  0
 24 37  1  0  0  0  0
 25 26  1  0  0  0  0
 25 38  1  0  0  0  0
 25 39  1  0  0  0  0
 26 27  1  0  0  0  0
 26 40  1  0  0  0  0
 26 41  1  0  0  0  0
 27 42  1  0  0  0  0
 27 43  1  0  0  0  0
M  END
$$$$
ZINC34918801
 OpenBabel01252620473D

 57 60  0  0  1  0  0  0  0  0999 V2000
   -5.1759   -2.6514   -0.0085 C   0  0  0  0  0  0  0  0  0  0  0  0
   -3.8587   -3.4271    0.0567 C   0  0  0  0  0  0  0  0  0  0  0  0
   -3.3960   -3.6925   -1.2690 O   0  0  0  0  0  0  0  0  0  0  0  0
   -2.2310   -4.3777   -1.3892 C   0  0  0  0  0  0  0  0  0  0  0  0
   -1.5493   -4.7916   -0.2501 C   0  0  0  0  0  0  0  0  0  0  0  0
   -0.3673   -5.4874   -0.3677 C   0  0  0  0  0  0  0  0  0  0  0  0
    0.1476   -5.7777   -1.6348 C   0  0  0  0  0  0  0  0  0  0  0  0
   -0.5410   -5.3597   -2.7776 C   0  0  0  0  0  0  0  0  0  0  0  0
   -1.7251   -4.6690   -2.6512 C   0  0  0  0  0  0  0  0  0  0  0  0
    1.4150   -6.5231   -1.7656 C   0  0  0  0  0  0  0  0  0  0  0  0
    1.9162   -6.8898   -3.0940 C   0  0  0  0  0  0  0  0  0  0  0  0
    2.3991   -5.9431   -4.1678 C   0  0  2  0  0  0  0  0  0  0  0  0
    1.5948   -5.2689   -4.4624 H   0  0  0  0  0  0  0  0  0  0  0  0
    2.7961   -6.7821   -5.3047 N   0  0  0  0  0  0  0  0  0  0  0  0
    2.5824   -8.0663   -4.9653 C   0  0  0  0  0  0  0  0  0  0  0  0
    2.8055   -9.0229   -5.6804 O   0  0  0  0  0  0  0  0  0  0  0  0
    2.0408   -8.1418   -3.5922 C   0  0  0  0  0  0  0  0  0  0  0  0
    1.7187   -9.2816   -2.9381 O   0  5  0  0  0  0  0  0  0  0  0  0
    3.3301   -6.3055   -6.5829 C   0  0  0  0  0  0  0  0  0  0  0  0
    4.8326   -6.2235   -6.5004 C   0  0  0  0  0  0  0  0  0  0  0  0
    5.6927   -7.2088   -6.8147 C   0  0  0  0  0  0  0  0  0  0  0  0
    6.9940   -6.7035   -6.5911 C   0  0  0  0  0  0  0  0  0  0  0  0
    6.8514   -5.4396   -6.1534 C   0  0  0  0  0  0  0  0  0  0  0  0
    5.5403   -5.1524   -6.1059 O   0  0  0  0  0  0  0  0  0  0  0  0
    3.5816   -5.1533   -3.6688 C   0  0  0  0  0  0  0  0  0  0  0  0
    4.8012   -5.7783   -3.4835 C   0  0  0  0  0  0  0  0  0  0  0  0
    5.8879   -5.0566   -3.0258 C   0  0  0  0  0  0  0  0  0  0  0  0
    5.7576   -3.7086   -2.7520 C   0  0  0  0  0  0  0  0  0  0  0  0
    4.5354   -3.0794   -2.9370 C   0  0  0  0  0  0  0  0  0  0  0  0
    3.4478   -3.8047   -3.4023 C   0  0  0  0  0  0  0  0  0  0  0  0
    4.4048   -1.7536   -2.6684 O   0  0  0  0  0  0  0  0  0  0  0  0
    5.5678   -1.0693   -2.1983 C   0  0  0  0  0  0  0  0  0  0  0  0
    5.2291    0.4023   -1.9523 C   0  0  0  0  0  0  0  0  0  0  0  0
    2.0439   -6.8333   -0.7709 O   0  0  0  0  0  0  0  0  0  0  0  0
   -5.0171   -1.7093   -0.5334 H   0  0  0  0  0  0  0  0  0  0  0  0
   -5.9201   -3.2433   -0.5413 H   0  0  0  0  0  0  0  0  0  0  0  0
   -5.5287   -2.4489    1.0027 H   0  0  0  0  0  0  0  0  0  0  0  0
   -3.1145   -2.8352    0.5896 H   0  0  0  0  0  0  0  0  0  0  0  0
   -4.0174   -4.3691    0.5816 H   0  0  0  0  0  0  0  0  0  0  0  0
   -1.9476   -4.5666    0.7282 H   0  0  0  0  0  0  0  0  0  0  0  0
    0.1617   -5.8081    0.5176 H   0  0  0  0  0  0  0  0  0  0  0  0
   -0.1466   -5.5820   -3.7582 H   0  0  0  0  0  0  0  0  0  0  0  0
   -2.2599   -4.3496   -3.5335 H   0  0  0  0  0  0  0  0  0  0  0  0
    3.0470   -6.9979   -7.3757 H   0  0  0  0  0  0  0  0  0  0  0  0
    2.9238   -5.3178   -6.8008 H   0  0  0  0  0  0  0  0  0  0  0  0
    5.4379   -8.1967   -7.1694 H   0  0  0  0  0  0  0  0  0  0  0  0
    7.9241   -7.2312   -6.7423 H   0  0  0  0  0  0  0  0  0  0  0  0
    7.6550   -4.7683   -5.8888 H   0  0  0  0  0  0  0  0  0  0  0  0
    4.9048   -6.8320   -3.6963 H   0  0  0  0  0  0  0  0  0  0  0  0
    6.8393   -5.5469   -2.8819 H   0  0  0  0  0  0  0  0  0  0  0  0
    6.6067   -3.1454   -2.3938 H   0  0  0  0  0  0  0  0  0  0  0  0
    2.4963   -3.3160   -3.5517 H   0  0  0  0  0  0  0  0  0  0  0  0
    5.9060   -1.5248   -1.2676 H   0  0  0  0  0  0  0  0  0  0  0  0
    6.3581   -1.1402   -2.9457 H   0  0  0  0  0  0  0  0  0  0  0  0
    4.8909    0.8578   -2.8830 H   0  0  0  0  0  0  0  0  0  0  0  0
    4.4389    0.4733   -1.2049 H   0  0  0  0  0  0  0  0  0  0  0  0
    6.1162    0.9243   -1.5937 H   0  0  0  0  0  0  0  0  0  0  0  0
  1  2  1  0  0  0  0
  1 35  1  0  0  0  0
  1 36  1  0  0  0  0
  1 37  1  0  0  0  0
  2  3  1  0  0  0  0
  2 38  1  0  0  0  0
  2 39  1  0  0  0  0
  3  4  1  0  0  0  0
  4  9  2  0  0  0  0
  4  5  1  0  0  0  0
  5  6  2  0  0  0  0
  5 40  1  0  0  0  0
  6  7  1  0  0  0  0
  6 41  1  0  0  0  0
  7  8  2  0  0  0  0
  7 10  1  0  0  0  0
  8  9  1  0  0  0  0
  8 42  1  0  0  0  0
  9 43  1  0  0  0  0
 10 11  1  0  0  0  0
 10 34  2  0  0  0  0
 11 17  2  0  0  0  0
 11 12  1  0  0  0  0
 12 14  1  0  0  0  0
 12 25  1  0  0  0  0
 12 13  1  6  0  0  0
 14 19  1  0  0  0  0
 14 15  1  0  0  0  0
 15 16  2  0  0  0  0
 15 17  1  0  0  0  0
 17 18  1  0  0  0  0
 19 20  1  0  0  0  0
 19 44  1  0  0  0  0
 19 45  1  0  0  0  0
 20 24  1  0  0  0  0
 20 21  2  0  0  0  0
 21 22  1  0  0  0  0
 21 46  1  0  0  0  0
 22 23  2  0  0  0  0
 22 47  1  0  0  0  0
 23 24  1  0  0  0  0
 23 48  1  0  0  0  0
 25 30  2  0  0  0  0
 25 26  1  0  0  0  0
 26 27  2  0  0  0  0
 26 49  1  0  0  0  0
 27 28  1  0  0  0  0
 27 50  1  0  0  0  0
 28 29  2  0  0  0  0
 28 51  1  0  0  0  0
 29 30  1  0  0  0  0
 29 31  1  0  0  0  0
 30 52  1  0  0  0  0
 31 32  1  0  0  0  0
 32 33  1  0  0  0  0
 32 53  1  0  0  0  0
 32 54  1  0  0  0  0
 33 55  1  0  0  0  0
 33 56  1  0  0  0  0
 33 57  1  0  0  0  0
M  CHG  1  18  -1
M  END
$$$$
ZINC62922092
 OpenBabel01252620473D

 37 37  0  0  1  0  0  0  0  0999 V2000
   -0.1192    0.7990   -0.4239 C   0  0  0  0  0  0  0  0  0  0  0  0
   -0.0914   -0.7150   -0.2050 C   0  0  2  0  0  0  0  0  0  0  0  0
   -1.5181   -1.2551    0.0780 C   0  0  0  0  0  0  0  0  0  0  0  0
   -1.6630   -0.9714    1.5940 C   0  0  0  0  0  0  0  0  0  0  0  0
   -0.3244   -1.2284    2.1556 N   0  0  0  0  0  0  0  0  0  0  0  0
    0.6738   -1.0656    1.0885 C   0  0  0  0  0  0  0  0  0  0  0  0
   -0.0595   -1.5572    3.4355 C   0  0  0  0  0  0  0  0  0  0  0  0
    1.0674   -1.8787    3.7598 O   0  0  0  0  0  0  0  0  0  0  0  0
   -1.0436   -1.5297    4.3559 N   0  0  0  0  0  0  0  0  0  0  0  0
   -0.7374   -1.7941    5.7639 C   0  0  0  0  0  0  0  0  0  0  0  0
   -0.3979   -0.4992    6.4560 C   0  0  0  0  0  0  0  0  0  0  0  0
   -1.0536   -0.1398    7.5316 C   0  0  0  0  0  0  0  0  0  0  0  0
   -2.4197   -1.2353    3.9484 C   0  0  0  0  0  0  0  0  0  0  0  0
   -3.0949   -2.5071    3.5038 C   0  0  0  0  0  0  0  0  0  0  0  0
   -4.2234   -2.8773    4.0565 C   0  0  0  0  0  0  0  0  0  0  0  0
    0.5210   -1.4122   -1.3923 C   0  0  0  0  0  0  0  0  0  0  0  0
    0.9215   -0.7609   -2.3420 O   0  0  0  0  0  0  0  0  0  0  0  0
    0.6160   -2.6277   -1.4033 O   0  0  0  0  0  1  0  0  0  0  0  0
    0.9013    1.1731   -0.5061 H   0  0  0  0  0  0  0  0  0  0  0  0
   -0.6635    1.0235   -1.3412 H   0  0  0  0  0  0  0  0  0  0  0  0
   -0.6153    1.2791    0.4196 H   0  0  0  0  0  0  0  0  0  0  0  0
   -2.2647   -0.7056   -0.4954 H   0  0  0  0  0  0  0  0  0  0  0  0
   -1.5791   -2.3239   -0.1271 H   0  0  0  0  0  0  0  0  0  0  0  0
   -1.9512    0.0666    1.7599 H   0  0  0  0  0  0  0  0  0  0  0  0
   -2.3962   -1.6451    2.0375 H   0  0  0  0  0  0  0  0  0  0  0  0
    1.2257   -1.9956    0.9522 H   0  0  0  0  0  0  0  0  0  0  0  0
    1.3606   -0.2585    1.3434 H   0  0  0  0  0  0  0  0  0  0  0  0
   -1.6040   -2.2471    6.2454 H   0  0  0  0  0  0  0  0  0  0  0  0
    0.1116   -2.4746    5.8295 H   0  0  0  0  0  0  0  0  0  0  0  0
    0.3860    0.1326    6.0651 H   0  0  0  0  0  0  0  0  0  0  0  0
   -0.8104    0.7882    8.0275 H   0  0  0  0  0  0  0  0  0  0  0  0
   -1.8375   -0.7716    7.9224 H   0  0  0  0  0  0  0  0  0  0  0  0
   -2.9650   -0.8098    4.7908 H   0  0  0  0  0  0  0  0  0  0  0  0
   -2.4098   -0.5219    3.1243 H   0  0  0  0  0  0  0  0  0  0  0  0
   -2.6484   -3.1134    2.7295 H   0  0  0  0  0  0  0  0  0  0  0  0
   -4.7073   -3.7888    3.7379 H   0  0  0  0  0  0  0  0  0  0  0  0
   -4.6699   -2.2711    4.8308 H   0  0  0  0  0  0  0  0  0  0  0  0
  1  2  1  0  0  0  0
  1 19  1  0  0  0  0
  1 20  1  0  0  0  0
  1 21  1  0  0  0  0
  2  6  1  0  0  0  0
  2  3  1  0  0  0  0
  2 16  1  6  0  0  0
  3  4  1  0  0  0  0
  3 22  1  0  0  0  0
  3 23  1  0  0  0  0
  4  5  1  0  0  0  0
  4 24  1  0  0  0  0
  4 25  1  0  0  0  0
  5  6  1  0  0  0  0
  5  7  1  0  0  0  0
  6 26  1  0  0  0  0
  6 27  1  0  0  0  0
  7  8  2  0  0  0  0
  7  9  1  0  0  0  0
  9 10  1  0  0  0  0
  9 13  1  0  0  0  0
 10 11  1  0  0  0  0
 10 28  1  0  0  0  0
 10 29  1  0  0  0  0
 11 12  2  0  0  0  0
 11 30  1  0  0  0  0
 12 31  1  0  0  0  0
 12 32  1  0  0  0  0
 13 14  1  0  0  0  0
 13 33  1  0  0  0  0
 13 34  1  0  0  0  0
 14 15  2  0  0  0  0
 14 35  1  0  0  0  0
 15 36  1  0  0  0  0
 15 37  1  0  0  0  0
 16 17  2  0  0  0  0
 16 18  1  0  0  0  0
M  END
$$$$
ZINC62066430
 OpenBabel01252620473D

 46 47  0  0  0  0  0  0  0  0999 V2000
   -2.1928    1.4697    0.6094 C   0  0  0  0  0  0  0  0  0  0  0  0
   -2.1682   -0.0371    0.6075 C   0  0  0  0  0  0  0  0  0  0  0  0
   -3.0592   -0.6588    1.1466 O   0  0  0  0  0  0  0  0  0  0  0  0
   -1.1560   -0.6937    0.0069 N   0  0  0  0  0  0  0  0  0  0  0  0
   -1.0814   -2.0886    0.0879 C   0  0  0  0  0  0  0  0  0  0  0  0
    0.1561   -2.7151    0.1716 C   0  0  0  0  0  0  0  0  0  0  0  0
    0.2309   -4.0922    0.2511 C   0  0  0  0  0  0  0  0  0  0  0  0
   -0.9237   -4.8512    0.2481 C   0  0  0  0  0  0  0  0  0  0  0  0
   -2.1642   -4.2309    0.1651 C   0  0  0  0  0  0  0  0  0  0  0  0
   -2.2428   -2.8470    0.0904 C   0  0  0  0  0  0  0  0  0  0  0  0
   -3.3310   -4.9986    0.1622 N   0  0  0  0  0  2  0  0  0  0  0  0
   -3.2364   -6.6491    0.2577 S   0  0  0  0  0  0  0  0  0  0  0  0
   -2.5661   -7.0433   -0.9316 O   0  0  0  0  0  0  0  0  0  0  0  0
   -2.6625   -6.9063    1.5320 O   0  0  0  0  0  0  0  0  0  0  0  0
   -4.9587   -7.2176    0.2220 C   0  0  0  0  0  0  0  0  0  0  0  0
   -4.9934   -8.7450    0.3056 C   0  0  0  0  0  0  0  0  0  0  0  0
   -6.3843   -9.2041    0.2768 N   0  0  0  0  0  0  0  0  0  0  0  0
   -6.6604  -10.5218    0.3393 C   0  0  0  0  0  0  0  0  0  0  0  0
   -5.7629  -11.3235    0.5127 O   0  0  0  0  0  0  0  0  0  0  0  0
   -7.9315  -10.9509    0.2096 N   0  0  0  0  0  0  0  0  0  0  0  0
   -9.0460   -9.9961    0.1017 C   0  0  0  0  0  0  0  0  0  0  0  0
   -9.8961  -10.3807   -1.1145 C   0  0  0  0  0  0  0  0  0  0  0  0
  -10.2506  -11.7627   -1.0230 O   0  0  0  0  0  0  0  0  0  0  0  0
   -9.1348  -12.6560   -1.0484 C   0  0  0  0  0  0  0  0  0  0  0  0
   -8.2451  -12.3879    0.1656 C   0  0  0  0  0  0  0  0  0  0  0  0
   -3.0802    1.8180    1.1380 H   0  0  0  0  0  0  0  0  0  0  0  0
   -1.3007    1.8471    1.1092 H   0  0  0  0  0  0  0  0  0  0  0  0
   -2.2153    1.8340   -0.4177 H   0  0  0  0  0  0  0  0  0  0  0  0
   -0.4793   -0.1994   -0.4816 H   0  0  0  0  0  0  0  0  0  0  0  0
    1.0604   -2.1248    0.1741 H   0  0  0  0  0  0  0  0  0  0  0  0
    1.1940   -4.5767    0.3153 H   0  0  0  0  0  0  0  0  0  0  0  0
   -0.8619   -5.9276    0.3101 H   0  0  0  0  0  0  0  0  0  0  0  0
   -3.2059   -2.3621    0.0303 H   0  0  0  0  0  0  0  0  0  0  0  0
   -5.4985   -6.7950    1.0695 H   0  0  0  0  0  0  0  0  0  0  0  0
   -5.4290   -6.8938   -0.7064 H   0  0  0  0  0  0  0  0  0  0  0  0
   -4.4536   -9.1676   -0.5418 H   0  0  0  0  0  0  0  0  0  0  0  0
   -4.5231   -9.0688    1.2341 H   0  0  0  0  0  0  0  0  0  0  0  0
   -7.1065   -8.5597    0.2127 H   0  0  0  0  0  0  0  0  0  0  0  0
   -9.6555  -10.0398    1.0043 H   0  0  0  0  0  0  0  0  0  0  0  0
   -8.6540   -8.9874   -0.0286 H   0  0  0  0  0  0  0  0  0  0  0  0
  -10.8009   -9.7732   -1.1331 H   0  0  0  0  0  0  0  0  0  0  0  0
   -9.3241  -10.2113   -2.0268 H   0  0  0  0  0  0  0  0  0  0  0  0
   -9.4919  -13.6855   -1.0194 H   0  0  0  0  0  0  0  0  0  0  0  0
   -8.5600  -12.4948   -1.9604 H   0  0  0  0  0  0  0  0  0  0  0  0
   -7.3229  -12.9624    0.0775 H   0  0  0  0  0  0  0  0  0  0  0  0
   -8.7726  -12.6766    1.0747 H   0  0  0  0  0  0  0  0  0  0  0  0
  1  2  1  0  0  0  0
  1 26  1  0  0  0  0
  1 27  1  0  0  0  0
  1 28  1  0  0  0  0
  2  3  2  0  0  0  0
  2  4  1  0  0  0  0
  4  5  1  0  0  0  0
  4 29  1  0  0  0  0
  5 10  2  0  0  0  0
  5  6  1  0  0  0  0
  6  7  2  0  0  0  0
  6 30  1  0  0  0  0
  7  8  1  0  0  0  0
  7 31  1  0  0  0  0
  8  9  2  0  0  0  0
  8 32  1  0  0  0  0
  9 10  1  0  0  0  0
  9 11  1  0  0  0  0
 10 33  1  0  0  0  0
 11 12  1  0  0  0  0
 12 13  2  0  0  0  0
 12 14  2  0  0  0  0
 12 15  1  0  0  0  0
 15 16  1  0  0  0  0
 15 34  1  0  0  0  0
 15 35  1  0  0  0  0
 16 17  1  0  0  0  0
 16 36  1  0  0  0  0
 16 37  1  0  0  0  0
 17 18  1  0  0  0  0
 17 38  1  0  0  0  0
 18 19  2  0  0  0  0
 18 20  1  0  0  0  0
 20 25  1  0  0  0  0
 20 21  1  0  0  0  0
 21 22  1  0  0  0  0
 21 39  1  0  0  0  0
 21 40  1  0  0  0  0
 22 23  1  0  0  0  0
 22 41  1  0  0  0  0
 22 42  1  0  0  0  0
 23 24  1  0  0  0  0
 24 25  1  0  0  0  0
 24 43  1  0  0  0  0
 24 44  1  0  0  0  0
 25 45  1  0  0  0  0
 25 46  1  0  0  0  0
M  END
$$$$
ZINC40028829
 OpenBabel01252620473D

 48 50  0  0  1  0  0  0  0  0999 V2000
   -0.5317    2.0667    1.3142 C   0  0  0  0  0  0  0  0  0  0  0  0
   -0.3661    0.8372    0.8933 C   0  0  0  0  0  0  0  0  0  0  0  0
    1.0236    0.2788    0.7258 C   0  0  0  0  0  0  0  0  0  0  0  0
    1.1486   -0.9598    1.4980 N   0  0  0  0  0  0  0  0  0  0  0  0
    1.5808   -1.0658    2.8965 C   0  0  2  0  0  0  0  0  0  0  0  0
    2.5939   -0.6790    3.0060 H   0  0  0  0  0  0  0  0  0  0  0  0
    1.5470   -2.5374    3.2374 C   0  0  0  0  0  0  0  0  0  0  0  0
    1.1324   -3.1866    2.1248 C   0  0  0  0  0  0  0  0  0  0  0  0
    0.8819   -2.2010    1.0524 C   0  0  0  0  0  0  0  0  0  0  0  0
    0.4951   -2.4718   -0.0671 O   0  0  0  0  0  0  0  0  0  0  0  0
    0.9689   -4.5251    2.0133 O   0  5  0  0  0  0  0  0  0  0  0  0
    1.8960   -3.1449    4.5256 C   0  0  0  0  0  0  0  0  0  0  0  0
    1.0510   -3.7435    5.1649 O   0  0  0  0  0  0  0  0  0  0  0  0
    3.2722   -3.0303    5.0469 C   0  0  0  0  0  0  0  0  0  0  0  0
    4.2709   -2.4405    4.2659 C   0  0  0  0  0  0  0  0  0  0  0  0
    5.5531   -2.3357    4.7558 C   0  0  0  0  0  0  0  0  0  0  0  0
    5.8557   -2.8154    6.0254 C   0  0  0  0  0  0  0  0  0  0  0  0
    4.8656   -3.4026    6.8053 C   0  0  0  0  0  0  0  0  0  0  0  0
    3.5795   -3.5062    6.3252 C   0  0  0  0  0  0  0  0  0  0  0  0
    7.1210   -2.7105    6.5044 O   0  0  0  0  0  0  0  0  0  0  0  0
    7.3627   -3.2237    7.8160 C   0  0  0  0  0  0  0  0  0  0  0  0
    8.8121   -3.0209    8.1755 C   0  0  0  0  0  0  0  0  0  0  0  0
    9.1352   -2.5597    9.3583 C   0  0  0  0  0  0  0  0  0  0  0  0
    0.6363   -0.3038    3.7899 C   0  0  0  0  0  0  0  0  0  0  0  0
   -0.7320   -0.4471    3.6341 C   0  0  0  0  0  0  0  0  0  0  0  0
   -1.5986    0.2536    4.4555 C   0  0  0  0  0  0  0  0  0  0  0  0
   -1.0977    1.0957    5.4305 C   0  0  0  0  0  0  0  0  0  0  0  0
    0.2681    1.2388    5.5861 C   0  0  0  0  0  0  0  0  0  0  0  0
    1.1358    0.5348    4.7697 C   0  0  0  0  0  0  0  0  0  0  0  0
    2.8512    0.7097    4.9707 Cl  0  0  0  0  0  0  0  0  0  0  0  0
   -1.2211   -1.2698    2.6807 F   0  0  0  0  0  0  0  0  0  0  0  0
    0.3277    2.6801    1.5410 H   0  0  0  0  0  0  0  0  0  0  0  0
   -1.5275    2.4683    1.4300 H   0  0  0  0  0  0  0  0  0  0  0  0
   -1.2255    0.2237    0.6665 H   0  0  0  0  0  0  0  0  0  0  0  0
    1.2065    0.0699   -0.3283 H   0  0  0  0  0  0  0  0  0  0  0  0
    1.7527    1.0055    1.0840 H   0  0  0  0  0  0  0  0  0  0  0  0
    4.0367   -2.0680    3.2796 H   0  0  0  0  0  0  0  0  0  0  0  0
    6.3251   -1.8806    4.1531 H   0  0  0  0  0  0  0  0  0  0  0  0
    5.1049   -3.7743    7.7907 H   0  0  0  0  0  0  0  0  0  0  0  0
    2.8100   -3.9581    6.9335 H   0  0  0  0  0  0  0  0  0  0  0  0
    6.7333   -2.6976    8.5337 H   0  0  0  0  0  0  0  0  0  0  0  0
    7.1282   -4.2880    7.8386 H   0  0  0  0  0  0  0  0  0  0  0  0
    9.5844   -3.2558    7.4580 H   0  0  0  0  0  0  0  0  0  0  0  0
   10.1739   -2.4144    9.6159 H   0  0  0  0  0  0  0  0  0  0  0  0
    8.3629   -2.3249   10.0758 H   0  0  0  0  0  0  0  0  0  0  0  0
   -2.6660    0.1426    4.3342 H   0  0  0  0  0  0  0  0  0  0  0  0
   -1.7740    1.6424    6.0709 H   0  0  0  0  0  0  0  0  0  0  0  0
    0.6584    1.8972    6.3480 H   0  0  0  0  0  0  0  0  0  0  0  0
  1  2  2  0  0  0  0
  1 32  1  0  0  0  0
  1 33  1  0  0  0  0
  2  3  1  0  0  0  0
  2 34  1  0  0  0  0
  3  4  1  0  0  0  0
  3 35  1  0  0  0  0
  3 36  1  0  0  0  0
  4  9  1  0  0  0  0
  4  5  1  0  0  0  0
  5  6  1  1  0  0  0
  5  7  1  0  0  0  0
  5 24  1  0  0  0  0
  7  8  2  0  0  0  0
  7 12  1  0  0  0  0
  8  9  1  0  0  0  0
  8 11  1  0  0  0  0
  9 10  2  0  0  0  0
 12 13  2  0  0  0  0
 12 14  1  0  0  0  0
 14 19  2  0  0  0  0
 14 15  1  0  0  0  0
 15 16  2  0  0  0  0
 15 37  1  0  0  0  0
 16 17  1  0  0  0  0
 16 38  1  0  0  0  0
 17 18  2  0  0  0  0
 17 20  1  0  0  0  0
 18 19  1  0  0  0  0
 18 39  1  0  0  0  0
 19 40  1  0  0  0  0
 20 21  1  0  0  0  0
 21 22  1  0  0  0  0
 21 41  1  0  0  0  0
 21 42  1  0  0  0  0
 22 23  2  0  0  0  0
 22 43  1  0  0  0  0
 23 44  1  0  0  0  0
 23 45  1  0  0  0  0
 24 29  2  0  0  0  0
 24 25  1  0  0  0  0
 25 26  2  0  0  0  0
 25 31  1  0  0  0  0
 26 27  1  0  0  0  0
 26 46  1  0  0  0  0
 27 28  2  0  0  0  0
 27 47  1  0  0  0  0
 28 29  1  0  0  0  0
 28 48  1  0  0  0  0
 29 30  1  0  0  0  0
M  CHG  1  11  -1
M  END
$$$$
ZINC65751147
 OpenBabel01252620473D

 32 33  0  0  0  0  0  0  0  0999 V2000
   -0.0184    1.5028    0.0103 C   0  0  0  0  0  0  0  0  0  0  0  0
    0.0021   -0.0041    0.0020 C   0  0  0  0  0  0  0  0  0  0  0  0
    0.0057   -0.6874   -1.2004 C   0  0  0  0  0  0  0  0  0  0  0  0
    0.0244   -2.0681   -1.2116 C   0  0  0  0  0  0  0  0  0  0  0  0
    0.0396   -2.7708   -0.0132 C   0  0  0  0  0  0  0  0  0  0  0  0
    0.0359   -2.0814    1.1925 C   0  0  0  0  0  0  0  0  0  0  0  0
    0.0229   -0.7002    1.1965 C   0  0  0  0  0  0  0  0  0  0  0  0
    0.0251    0.0488    2.5042 C   0  0  0  0  0  0  0  0  0  0  0  0
    0.0475   -0.8638    3.5642 F   0  0  0  0  0  0  0  0  0  0  0  0
    1.1570    0.8683    2.5703 F   0  0  0  0  0  0  0  0  0  0  0  0
   -1.1273    0.8372    2.5919 F   0  0  0  0  0  0  0  0  0  0  0  0
    0.0581   -4.1674   -0.0209 N   0  0  0  0  0  2  0  0  0  0  0  0
    0.0619   -4.9875   -1.4596 S   0  0  0  0  0  0  0  0  0  0  0  0
   -1.1901   -4.7266   -2.0791 O   0  0  0  0  0  0  0  0  0  0  0  0
    1.3004   -4.6936   -2.0913 O   0  0  0  0  0  0  0  0  0  0  0  0
    0.0866   -6.7076   -1.0786 C   0  0  0  0  0  0  0  0  0  0  0  0
    1.2270   -7.4940   -0.9009 C   0  0  0  0  0  0  0  0  0  0  0  0
    0.7928   -8.7754   -0.6186 C   0  0  0  0  0  0  0  0  0  0  0  0
   -0.5852   -8.7555   -0.6272 N   0  0  0  0  0  0  0  0  0  0  0  0
   -1.1625   -9.5170   -0.4604 H   0  0  0  0  0  0  0  0  0  0  0  0
   -0.9982   -7.5012   -0.9002 C   0  0  0  0  0  0  0  0  0  0  0  0
    1.6394   -9.9380   -0.3589 C   0  0  0  0  0  0  0  0  0  0  0  0
    1.1296  -11.0257   -0.1196 O   0  0  0  0  0  0  0  0  0  0  0  0
    2.8589   -9.8246   -0.3807 O   0  0  0  0  0  1  0  0  0  0  0  0
    1.0042    1.8801    0.0026 H   0  0  0  0  0  0  0  0  0  0  0  0
   -0.5455    1.8639   -0.8728 H   0  0  0  0  0  0  0  0  0  0  0  0
   -0.5286    1.8543    0.9071 H   0  0  0  0  0  0  0  0  0  0  0  0
   -0.0065   -0.1406   -2.1317 H   0  0  0  0  0  0  0  0  0  0  0  0
    0.0269   -2.6011   -2.1509 H   0  0  0  0  0  0  0  0  0  0  0  0
    0.0473   -2.6246    2.1259 H   0  0  0  0  0  0  0  0  0  0  0  0
    2.2528   -7.1637   -0.9709 H   0  0  0  0  0  0  0  0  0  0  0  0
   -2.0274   -7.1810   -0.9687 H   0  0  0  0  0  0  0  0  0  0  0  0
  1  2  1  0  0  0  0
  1 25  1  0  0  0  0
  1 26  1  0  0  0  0
  1 27  1  0  0  0  0
  2  7  2  0  0  0  0
  2  3  1  0  0  0  0
  3  4  2  0  0  0  0
  3 28  1  0  0  0  0
  4  5  1  0  0  0  0
  4 29  1  0  0  0  0
  5  6  2  0  0  0  0
  5 12  1  0  0  0  0
  6  7  1  0  0  0  0
  6 30  1  0  0  0  0
  7  8  1  0  0  0  0
  8  9  1  0  0  0  0
  8 10  1  0  0  0  0
  8 11  1  0  0  0  0
 12 13  1  0  0  0  0
 13 14  2  0  0  0  0
 13 15  2  0  0  0  0
 13 16  1  0  0  0  0
 16 21  2  0  0  0  0
 16 17  1  0  0  0  0
 17 18  2  0  0  0  0
 17 31  1  0  0  0  0
 18 19  1  0  0  0  0
 18 22  1  0  0  0  0
 19 20  1  0  0  0  0
 19 21  1  0  0  0  0
 21 32  1  0  0  0  0
 22 23  2  0  0  0  0
 22 24  1  0  0  0  0
M  END
$$$$
ZINC43422952
 OpenBabel01252620473D

 43 43  0  0  1  0  0  0  0  0999 V2000
   -0.4610    1.6120    0.3688 C   0  0  0  0  0  0  0  0  0  0  0  0
   -0.3127    0.0928    0.2633 C   0  0  0  0  0  0  0  0  0  0  0  0
    0.2468   -0.4574    1.5766 C   0  0  0  0  0  0  0  0  0  0  0  0
   -1.6805   -0.5353   -0.0113 C   0  0  0  0  0  0  0  0  0  0  0  0
   -1.5202   -1.9731   -0.2422 N   0  0  0  0  0  0  0  0  0  0  0  0
   -1.4931   -2.8987    0.8930 C   0  0  0  0  0  0  0  0  0  0  0  0
   -2.9162   -3.3671    1.2032 C   0  0  0  0  0  0  0  0  0  0  0  0
   -2.8889   -4.2972    2.3439 C   0  0  0  0  0  0  0  0  0  0  0  0
   -2.8679   -5.0149    3.2241 N   0  0  0  0  0  0  0  0  0  0  0  0
   -1.3976   -2.4442   -1.4990 C   0  0  0  0  0  0  0  0  0  0  0  0
   -1.3931   -3.6432   -1.7010 O   0  0  0  0  0  0  0  0  0  0  0  0
   -1.2800   -1.5863   -2.5318 N   0  0  0  0  0  0  0  0  0  0  0  0
   -1.2684   -0.1156   -2.4301 C   0  0  0  0  0  0  0  0  0  0  0  0
   -0.5164    0.3635   -3.6968 C   0  0  1  0  0  0  0  0  0  0  0  0
    0.5627    0.2927   -3.5608 H   0  0  0  0  0  0  0  0  0  0  0  0
   -1.0113   -0.6555   -4.7570 C   0  0  0  0  0  0  0  0  0  0  0  0
   -1.1355   -1.9623   -3.9458 C   0  0  2  0  0  0  0  0  0  0  0  0
   -0.2402   -2.5696   -4.0783 H   0  0  0  0  0  0  0  0  0  0  0  0
   -2.3507   -2.7300   -4.3986 C   0  0  0  0  0  0  0  0  0  0  0  0
   -3.3247   -2.8146   -3.6702 O   0  0  0  0  0  0  0  0  0  0  0  0
   -2.3598   -3.2664   -5.4935 O   0  0  0  0  0  1  0  0  0  0  0  0
   -0.8995    1.6950   -4.0470 O   0  0  0  0  0  0  0  0  0  0  0  0
   -0.0756    2.7083   -3.4671 C   0  0  0  0  0  0  0  0  0  0  0  0
    0.5135    2.0595    0.5644 H   0  0  0  0  0  0  0  0  0  0  0  0
   -0.8596    2.0040   -0.5669 H   0  0  0  0  0  0  0  0  0  0  0  0
   -1.1425    1.8547    1.1841 H   0  0  0  0  0  0  0  0  0  0  0  0
    0.3688   -0.1499   -0.5520 H   0  0  0  0  0  0  0  0  0  0  0  0
   -0.4347   -0.2147    2.3919 H   0  0  0  0  0  0  0  0  0  0  0  0
    0.3525   -1.5397    1.5014 H   0  0  0  0  0  0  0  0  0  0  0  0
    1.2213   -0.0100    1.7722 H   0  0  0  0  0  0  0  0  0  0  0  0
   -2.3326   -0.3757    0.8474 H   0  0  0  0  0  0  0  0  0  0  0  0
   -2.1222   -0.0726   -0.8939 H   0  0  0  0  0  0  0  0  0  0  0  0
   -0.8731   -3.7601    0.6447 H   0  0  0  0  0  0  0  0  0  0  0  0
   -1.0790   -2.3923    1.7649 H   0  0  0  0  0  0  0  0  0  0  0  0
   -3.5362   -2.5057    1.4516 H   0  0  0  0  0  0  0  0  0  0  0  0
   -3.3302   -3.8735    0.3313 H   0  0  0  0  0  0  0  0  0  0  0  0
   -2.2870    0.2722   -2.4241 H   0  0  0  0  0  0  0  0  0  0  0  0
   -0.7368    0.1983   -1.5318 H   0  0  0  0  0  0  0  0  0  0  0  0
   -1.9782   -0.3540   -5.1598 H   0  0  0  0  0  0  0  0  0  0  0  0
   -0.2779   -0.7682   -5.5554 H   0  0  0  0  0  0  0  0  0  0  0  0
    0.9542    2.5725   -3.7976 H   0  0  0  0  0  0  0  0  0  0  0  0
   -0.4315    3.6896   -3.7810 H   0  0  0  0  0  0  0  0  0  0  0  0
   -0.1210    2.6359   -2.3805 H   0  0  0  0  0  0  0  0  0  0  0  0
  1  2  1  0  0  0  0
  1 24  1  0  0  0  0
  1 25  1  0  0  0  0
  1 26  1  0  0  0  0
  2  3  1  0  0  0  0
  2  4  1  0  0  0  0
  2 27  1  0  0  0  0
  3 28  1  0  0  0  0
  3 29  1  0  0  0  0
  3 30  1  0  0  0  0
  4  5  1  0  0  0  0
  4 31  1  0  0  0  0
  4 32  1  0  0  0  0
  5  6  1  0  0  0  0
  5 10  1  0  0  0  0
  6  7  1  0  0  0  0
  6 33  1  0  0  0  0
  6 34  1  0  0  0  0
  7  8  1  0  0  0  0
  7 35  1  0  0  0  0
  7 36  1  0  0  0  0
  8  9  3  0  0  0  0
 10 11  2  0  0  0  0
 10 12  1  0  0  0  0
 12 17  1  0  0  0  0
 12 13  1  0  0  0  0
 13 14  1  0  0  0  0
 13 37  1  0  0  0  0
 13 38  1  0  0  0  0
 14 15  1  1  0  0  0
 14 16  1  0  0  0  0
 14 22  1  0  0  0  0
 16 17  1  0  0  0  0
 16 39  1  0  0  0  0
 16 40  1  0  0  0  0
 17 18  1  6  0  0  0
 17 19  1  0  0  0  0
 19 20  2  0  0  0  0
 19 21  1  0  0  0  0
 22 23  1  0  0  0  0
 23 41  1  0  0  0  0
 23 42  1  0  0  0  0
 23 43  1  0  0  0  0
M  END
$$$$
ZINC04227465
 OpenBabel01252620473D

 40 42  0  0  0  0  0  0  0  0999 V2000
    3.3210   -8.7451    0.8517 C   0  0  0  0  0  0  0  0  0  0  0  0
    3.6319  -10.0894    0.8341 C   0  0  0  0  0  0  0  0  0  0  0  0
    4.5309  -10.5823   -0.0962 C   0  0  0  0  0  0  0  0  0  0  0  0
    5.1172   -9.7313   -1.0174 C   0  0  0  0  0  0  0  0  0  0  0  0
    4.8086   -8.3864   -1.0118 C   0  0  0  0  0  0  0  0  0  0  0  0
    3.9045   -7.8851   -0.0770 C   0  0  0  0  0  0  0  0  0  0  0  0
    3.5692   -6.4404   -0.0665 C   0  0  0  0  0  0  0  0  0  0  0  0
    4.5509   -5.5018   -0.0709 C   0  0  0  0  0  0  0  0  0  0  0  0
    4.2925   -4.1917   -0.0610 O   0  0  0  0  0  0  0  0  0  0  0  0
    3.0443   -3.6838   -0.0468 C   0  0  0  0  0  0  0  0  0  0  0  0
    2.8407   -2.3100   -0.0375 C   0  0  0  0  0  0  0  0  0  0  0  0
    1.5517   -1.8052   -0.0225 C   0  0  0  0  0  0  0  0  0  0  0  0
    0.4538   -2.6632   -0.0108 C   0  0  0  0  0  0  0  0  0  0  0  0
    0.6364   -4.0164   -0.0251 C   0  0  0  0  0  0  0  0  0  0  0  0
    1.9298   -4.5405   -0.0407 C   0  0  0  0  0  0  0  0  0  0  0  0
    2.1651   -5.9957   -0.0508 C   0  0  0  0  0  0  0  0  0  0  0  0
    1.2425   -6.7923   -0.0458 O   0  0  0  0  0  0  0  0  0  0  0  0
    1.3556   -0.4620   -0.0134 O   0  0  0  0  0  0  0  0  0  0  0  0
    0.0021   -0.0041    0.0020 C   0  0  0  0  0  0  0  0  0  0  0  0
   -0.0184    1.5028    0.0103 C   0  0  0  0  0  0  0  0  0  0  0  0
    1.0236    2.1234    0.0037 O   0  0  0  0  0  0  0  0  0  0  0  0
   -1.1946    2.1607    0.0195 N   0  0  0  0  0  0  0  0  0  0  0  0
   -1.2145    3.6256    0.0275 C   0  0  0  0  0  0  0  0  0  0  0  0
   -2.6419    4.1085    0.0369 C   0  0  0  0  0  0  0  0  0  0  0  0
   -3.5496    3.3110    0.0369 O   0  0  0  0  0  0  0  0  0  0  0  0
    4.9238  -12.2732   -0.1081 Cl  0  0  0  0  0  0  0  0  0  0  0  0
    2.6235   -8.3607    1.5812 H   0  0  0  0  0  0  0  0  0  0  0  0
    3.1772  -10.7573    1.5507 H   0  0  0  0  0  0  0  0  0  0  0  0
    5.8176  -10.1207   -1.7414 H   0  0  0  0  0  0  0  0  0  0  0  0
    5.2671   -7.7232   -1.7305 H   0  0  0  0  0  0  0  0  0  0  0  0
    5.5804   -5.8277   -0.0825 H   0  0  0  0  0  0  0  0  0  0  0  0
    3.6856   -1.6373   -0.0416 H   0  0  0  0  0  0  0  0  0  0  0  0
   -0.5464   -2.2560    0.0057 H   0  0  0  0  0  0  0  0  0  0  0  0
   -0.2167   -4.6786   -0.0206 H   0  0  0  0  0  0  0  0  0  0  0  0
   -0.4983   -0.3791    0.8948 H   0  0  0  0  0  0  0  0  0  0  0  0
   -0.5153   -0.3696   -0.8850 H   0  0  0  0  0  0  0  0  0  0  0  0
   -2.0280    1.6644    0.0207 H   0  0  0  0  0  0  0  0  0  0  0  0
   -0.7014    3.9910    0.9171 H   0  0  0  0  0  0  0  0  0  0  0  0
   -0.7098    4.0007   -0.8628 H   0  0  0  0  0  0  0  0  0  0  0  0
   -2.9051    5.4247    0.0453 O   0  0  0  0  0  1  0  0  0  0  0  0
  1  6  2  0  0  0  0
  1  2  1  0  0  0  0
  1 27  1  0  0  0  0
  2  3  2  0  0  0  0
  2 28  1  0  0  0  0
  3  4  1  0  0  0  0
  3 26  1  0  0  0  0
  4  5  2  0  0  0  0
  4 29  1  0  0  0  0
  5  6  1  0  0  0  0
  5 30  1  0  0  0  0
  6  7  1  0  0  0  0
  7 16  1  0  0  0  0
  7  8  2  0  0  0  0
  8  9  1  0  0  0  0
  8 31  1  0  0  0  0
  9 10  1  0  0  0  0
 10 15  2  0  0  0  0
 10 11  1  0  0  0  0
 11 12  2  0  0  0  0
 11 32  1  0  0  0  0
 12 13  1  0  0  0  0
 12 18  1  0  0  0  0
 13 14  2  0  0  0  0
 13 33  1  0  0  0  0
 14 15  1  0  0  0  0
 14 34  1  0  0  0  0
 15 16  1  0  0  0  0
 16 17  2  0  0  0  0
 18 19  1  0  0  0  0
 19 20  1  0  0  0  0
 19 35  1  0  0  0  0
 19 36  1  0  0  0  0
 20 21  2  0  0  0  0
 20 22  1  0  0  0  0
 22 23  1  0  0  0  0
 22 37  1  0  0  0  0
 23 24  1  0  0  0  0
 23 38  1  0  0  0  0
 23 39  1  0  0  0  0
 24 25  2  0  0  0  0
 24 40  1  0  0  0  0
M  END
$$$$
ZINC13277501
 OpenBabel01252620473D

 53 56  0  0  1  0  0  0  0  0999 V2000
   -0.0184    1.5028    0.0103 C   0  0  0  0  0  0  0  0  0  0  0  0
    0.0021   -0.0041    0.0020 C   0  0  0  0  0  0  0  0  0  0  0  0
    0.0057   -0.6862   -1.2006 C   0  0  0  0  0  0  0  0  0  0  0  0
    0.0249   -2.0655   -1.2171 C   0  0  0  0  0  0  0  0  0  0  0  0
    0.0406   -2.7783   -0.0150 C   0  0  0  0  0  0  0  0  0  0  0  0
    0.0369   -2.0895    1.1991 C   0  0  0  0  0  0  0  0  0  0  0  0
    0.0230   -0.7030    1.2036 C   0  0  0  0  0  0  0  0  0  0  0  0
    0.0250   -0.0080    2.4164 N   0  0  0  0  0  0  0  0  0  0  0  0
   -1.1605    0.3998    3.1792 C   0  0  2  0  0  0  0  0  0  0  0  0
   -1.7764    1.0730    2.5829 H   0  0  0  0  0  0  0  0  0  0  0  0
   -0.6469    1.1158    4.4065 C   0  0  0  0  0  0  0  0  0  0  0  0
    0.7073    1.1041    4.3276 C   0  0  0  0  0  0  0  0  0  0  0  0
    1.1142    0.3997    3.0926 C   0  0  0  0  0  0  0  0  0  0  0  0
    2.2625    0.2180    2.7397 O   0  0  0  0  0  0  0  0  0  0  0  0
    1.5501    1.6457    5.2350 O   0  5  0  0  0  0  0  0  0  0  0  0
   -1.4273    1.6881    5.4382 C   0  0  0  0  0  0  0  0  0  0  0  0
   -0.8857    2.2382    6.3749 O   0  0  0  0  0  0  0  0  0  0  0  0
   -2.9312    1.6149    5.3743 C   0  0  0  0  0  0  0  0  0  0  0  0
   -3.7158    2.8792    5.7303 C   0  0  0  0  0  0  0  0  0  0  0  0
   -3.6990    1.6922    6.6955 C   0  0  0  0  0  0  0  0  0  0  0  0
   -1.9597   -0.8127    3.5817 C   0  0  0  0  0  0  0  0  0  0  0  0
   -1.3112   -1.9576    4.0072 C   0  0  0  0  0  0  0  0  0  0  0  0
   -2.0415   -3.0716    4.3772 C   0  0  0  0  0  0  0  0  0  0  0  0
   -3.4218   -3.0437    4.3222 C   0  0  0  0  0  0  0  0  0  0  0  0
   -4.0747   -1.8965    3.8957 C   0  0  0  0  0  0  0  0  0  0  0  0
   -3.3396   -0.7777    3.5308 C   0  0  0  0  0  0  0  0  0  0  0  0
   -5.4323   -1.8666    3.8408 O   0  0  0  0  0  0  0  0  0  0  0  0
   -6.1239   -3.0526    4.2371 C   0  0  0  0  0  0  0  0  0  0  0  0
   -7.6096   -2.8336    4.1112 C   0  0  0  0  0  0  0  0  0  0  0  0
   -8.3628   -3.7528    3.5600 C   0  0  0  0  0  0  0  0  0  0  0  0
    0.0606   -4.2537   -0.0292 C   0  0  0  0  0  0  0  0  0  0  0  0
    0.0634   -4.8549   -1.0941 O   0  0  0  0  0  0  0  0  0  0  0  0
    0.0744   -4.8752    1.0239 O   0  0  0  0  0  1  0  0  0  0  0  0
    1.0042    1.8801    0.0026 H   0  0  0  0  0  0  0  0  0  0  0  0
   -0.5455    1.8639   -0.8728 H   0  0  0  0  0  0  0  0  0  0  0  0
   -0.5286    1.8543    0.9071 H   0  0  0  0  0  0  0  0  0  0  0  0
   -0.0068   -0.1372   -2.1306 H   0  0  0  0  0  0  0  0  0  0  0  0
    0.0273   -2.5944   -2.1587 H   0  0  0  0  0  0  0  0  0  0  0  0
    0.0490   -2.6344    2.1314 H   0  0  0  0  0  0  0  0  0  0  0  0
   -3.3379    0.9732    4.5927 H   0  0  0  0  0  0  0  0  0  0  0  0
   -3.1442    3.7640    6.0107 H   0  0  0  0  0  0  0  0  0  0  0  0
   -4.6389    3.0696    5.1828 H   0  0  0  0  0  0  0  0  0  0  0  0
   -4.6109    1.1017    6.7829 H   0  0  0  0  0  0  0  0  0  0  0  0
   -3.1163    1.7960    7.6109 H   0  0  0  0  0  0  0  0  0  0  0  0
   -0.2323   -1.9816    4.0502 H   0  0  0  0  0  0  0  0  0  0  0  0
   -1.5327   -3.9645    4.7091 H   0  0  0  0  0  0  0  0  0  0  0  0
   -3.9919   -3.9144    4.6106 H   0  0  0  0  0  0  0  0  0  0  0  0
   -3.8457    0.1182    3.2029 H   0  0  0  0  0  0  0  0  0  0  0  0
   -5.8230   -3.8804    3.5949 H   0  0  0  0  0  0  0  0  0  0  0  0
   -5.8778   -3.2880    5.2725 H   0  0  0  0  0  0  0  0  0  0  0  0
   -8.0533   -1.9187    4.4753 H   0  0  0  0  0  0  0  0  0  0  0  0
   -7.9191   -4.6676    3.1958 H   0  0  0  0  0  0  0  0  0  0  0  0
   -9.4275   -3.5958    3.4698 H   0  0  0  0  0  0  0  0  0  0  0  0
  1  2  1  0  0  0  0
  1 34  1  0  0  0  0
  1 35  1  0  0  0  0
  1 36  1  0  0  0  0
  2  7  2  0  0  0  0
  2  3  1  0  0  0  0
  3  4  2  0  0  0  0
  3 37  1  0  0  0  0
  4  5  1  0  0  0  0
  4 38  1  0  0  0  0
  5  6  2  0  0  0  0
  5 31  1  0  0  0  0
  6  7  1  0  0  0  0
  6 39  1  0  0  0  0
  7  8  1  0  0  0  0
  8 13  1  0  0  0  0
  8  9  1  0  0  0  0
  9 10  1  6  0  0  0
  9 11  1  0  0  0  0
  9 21  1  0  0  0  0
 11 12  2  0  0  0  0
 11 16  1  0  0  0  0
 12 13  1  0  0  0  0
 12 15  1  0  0  0  0
 13 14  2  0  0  0  0
 16 17  2  0  0  0  0
 16 18  1  0  0  0  0
 18 20  1  0  0  0  0
 18 19  1  0  0  0  0
 18 40  1  0  0  0  0
 19 20  1  0  0  0  0
 19 41  1  0  0  0  0
 19 42  1  0  0  0  0
 20 43  1  0  0  0  0
 20 44  1  0  0  0  0
 21 26  2  0  0  0  0
 21 22  1  0  0  0  0
 22 23  2  0  0  0  0
 22 45  1  0  0  0  0
 23 24  1  0  0  0  0
 23 46  1  0  0  0  0
 24 25  2  0  0  0  0
 24 47  1  0  0  0  0
 25 26  1  0  0  0  0
 25 27  1  0  0  0  0
 26 48  1  0  0  0  0
 27 28  1  0  0  0  0
 28 29  1  0  0  0  0
 28 49  1  0  0  0  0
 28 50  1  0  0  0  0
 29 30  2  0  0  0  0
 29 51  1  0  0  0  0
 30 52  1  0  0  0  0
 30 53  1  0  0  0  0
 31 32  2  0  0  0  0
 31 33  1  0  0  0  0
M  CHG  1  15  -1
M  END
$$$$
ZINC13244511
 OpenBabel01252620473D

 59 61  0  0  0  0  0  0  0  0999 V2000
    4.1599    6.2483    0.4332 C   0  0  0  0  0  0  0  0  0  0  0  0
    4.2745    7.6232    1.0395 C   0  0  0  0  0  0  0  0  0  0  0  0
    5.1561    8.5413    0.5047 C   0  0  0  0  0  0  0  0  0  0  0  0
    5.2733    9.8059    1.0581 C   0  0  0  0  0  0  0  0  0  0  0  0
    4.5060   10.1637    2.1456 C   0  0  0  0  0  0  0  0  0  0  0  0
    3.6053    9.2476    2.6944 C   0  0  0  0  0  0  0  0  0  0  0  0
    3.4895    7.9671    2.1314 C   0  0  0  0  0  0  0  0  0  0  0  0
    2.5958    7.0443    2.6691 N   0  0  0  0  0  0  0  0  0  0  0  0
    1.6774    6.4556    1.8776 C   0  0  0  0  0  0  0  0  0  0  0  0
    1.5846    6.7787    0.7124 O   0  0  0  0  0  0  0  0  0  0  0  0
    0.7657    5.3960    2.4407 C   0  0  0  0  0  0  0  0  0  0  0  0
   -0.3460    4.8038    1.1408 S   0  0  0  0  0  0  0  0  0  0  0  0
   -1.2706    3.6103    2.0493 C   0  0  0  0  0  0  0  0  0  0  0  0
   -0.9900    3.4358    3.3171 N   0  0  0  0  0  0  0  0  0  0  0  0
   -1.6569    2.5319    4.0728 C   0  0  0  0  0  0  0  0  0  0  0  0
   -1.3525    2.3439    5.4240 C   0  0  0  0  0  0  0  0  0  0  0  0
   -2.0642    1.4049    6.1599 C   0  0  0  0  0  0  0  0  0  0  0  0
   -3.0795    0.6508    5.5572 C   0  0  0  0  0  0  0  0  0  0  0  0
   -3.3853    0.8256    4.2381 C   0  0  0  0  0  0  0  0  0  0  0  0
   -2.6837    1.7627    3.4804 C   0  0  0  0  0  0  0  0  0  0  0  0
   -2.9814    1.9837    2.0562 C   0  0  0  0  0  0  0  0  0  0  0  0
   -3.8536    1.3524    1.4888 O   0  0  0  0  0  0  0  0  0  0  0  0
   -2.2498    2.9139    1.4005 N   0  0  0  0  0  0  0  0  0  0  0  0
   -2.5062    3.1719   -0.0187 C   0  0  0  0  0  0  0  0  0  0  0  0
   -3.5600    4.2727   -0.1547 C   0  0  0  0  0  0  0  0  0  0  0  0
   -3.8277    4.5421   -1.6368 C   0  0  0  0  0  0  0  0  0  0  0  0
   -4.8120    5.5703   -1.7638 O   0  0  0  0  0  0  0  0  0  0  0  0
   -5.1368    5.9002   -3.1158 C   0  0  0  0  0  0  0  0  0  0  0  0
   -1.7479    1.2000    7.5906 C   0  0  0  0  0  0  0  0  0  0  0  0
   -0.8689    1.8515    8.1175 O   0  0  0  0  0  0  0  0  0  0  0  0
   -2.4348    0.2908    8.3087 O   0  0  0  0  0  0  0  0  0  0  0  0
   -2.0707    0.1432    9.7065 C   0  0  0  0  0  0  0  0  0  0  0  0
    2.7812    9.6236    3.8571 C   0  0  0  0  0  0  0  0  0  0  0  0
    2.0707    8.7954    4.3916 O   0  0  0  0  0  0  0  0  0  0  0  0
    3.4909    6.2850   -0.4266 H   0  0  0  0  0  0  0  0  0  0  0  0
    5.1450    5.9092    0.1128 H   0  0  0  0  0  0  0  0  0  0  0  0
    3.7608    5.5564    1.1748 H   0  0  0  0  0  0  0  0  0  0  0  0
    5.7617    8.2703   -0.3475 H   0  0  0  0  0  0  0  0  0  0  0  0
    5.9692   10.5152    0.6349 H   0  0  0  0  0  0  0  0  0  0  0  0
    4.6008   11.1511    2.5728 H   0  0  0  0  0  0  0  0  0  0  0  0
    2.6343    6.8253    3.6133 H   0  0  0  0  0  0  0  0  0  0  0  0
    0.1787    5.8178    3.2565 H   0  0  0  0  0  0  0  0  0  0  0  0
    1.3628    4.5643    2.8148 H   0  0  0  0  0  0  0  0  0  0  0  0
   -0.5708    2.9239    5.8919 H   0  0  0  0  0  0  0  0  0  0  0  0
   -3.6248   -0.0758    6.1412 H   0  0  0  0  0  0  0  0  0  0  0  0
   -4.1695    0.2392    3.7824 H   0  0  0  0  0  0  0  0  0  0  0  0
   -2.8693    2.2606   -0.4938 H   0  0  0  0  0  0  0  0  0  0  0  0
   -1.5830    3.4909   -0.5025 H   0  0  0  0  0  0  0  0  0  0  0  0
   -4.4832    3.9537    0.3292 H   0  0  0  0  0  0  0  0  0  0  0  0
   -3.1969    5.1840    0.3205 H   0  0  0  0  0  0  0  0  0  0  0  0
   -2.9046    4.8611   -2.1206 H   0  0  0  0  0  0  0  0  0  0  0  0
   -4.1909    3.6308   -2.1119 H   0  0  0  0  0  0  0  0  0  0  0  0
   -4.2408    6.2474   -3.6303 H   0  0  0  0  0  0  0  0  0  0  0  0
   -5.5270    5.0171   -3.6216 H   0  0  0  0  0  0  0  0  0  0  0  0
   -5.8902    6.6878   -3.1266 H   0  0  0  0  0  0  0  0  0  0  0  0
   -2.6992   -0.6190   10.1671 H   0  0  0  0  0  0  0  0  0  0  0  0
   -1.0249   -0.1551    9.7800 H   0  0  0  0  0  0  0  0  0  0  0  0
   -2.2147    1.0928   10.2217 H   0  0  0  0  0  0  0  0  0  0  0  0
    2.8158   10.8859    4.3274 O   0  0  0  0  0  1  0  0  0  0  0  0
  1  2  1  0  0  0  0
  1 35  1  0  0  0  0
  1 36  1  0  0  0  0
  1 37  1  0  0  0  0
  2  7  2  0  0  0  0
  2  3  1  0  0  0  0
  3  4  2  0  0  0  0
  3 38  1  0  0  0  0
  4  5  1  0  0  0  0
  4 39  1  0  0  0  0
  5  6  2  0  0  0  0
  5 40  1  0  0  0  0
  6  7  1  0  0  0  0
  6 33  1  0  0  0  0
  7  8  1  0  0  0  0
  8  9  1  0  0  0  0
  8 41  1  0  0  0  0
  9 10  2  0  0  0  0
  9 11  1  0  0  0  0
 11 12  1  0  0  0  0
 11 42  1  0  0  0  0
 11 43  1  0  0  0  0
 12 13  1  0  0  0  0
 13 23  1  0  0  0  0
 13 14  2  0  0  0  0
 14 15  1  0  0  0  0
 15 20  2  0  0  0  0
 15 16  1  0  0  0  0
 16 17  2  0  0  0  0
 16 44  1  0  0  0  0
 17 18  1  0  0  0  0
 17 29  1  0  0  0  0
 18 19  2  0  0  0  0
 18 45  1  0  0  0  0
 19 20  1  0  0  0  0
 19 46  1  0  0  0  0
 20 21  1  0  0  0  0
 21 22  2  0  0  0  0
 21 23  1  0  0  0  0
 23 24  1  0  0  0  0
 24 25  1  0  0  0  0
 24 47  1  0  0  0  0
 24 48  1  0  0  0  0
 25 26  1  0  0  0  0
 25 49  1  0  0  0  0
 25 50  1  0  0  0  0
 26 27  1  0  0  0  0
 26 51  1  0  0  0  0
 26 52  1  0  0  0  0
 27 28  1  0  0  0  0
 28 53  1  0  0  0  0
 28 54  1  0  0  0  0
 28 55  1  0  0  0  0
 29 30  2  0  0  0  0
 29 31  1  0  0  0  0
 31 32  1  0  0  0  0
 32 56  1  0  0  0  0
 32 57  1  0  0  0  0
 32 58  1  0  0  0  0
 33 34  2  0  0  0  0
 33 59  1  0  0  0  0
M  END
$$$$
ZINC62844620
 OpenBabel01252620473D

 37 38  0  0  0  0  0  0  0  0999 V2000
    0.0692    1.2615   -1.4934 C   0  0  0  0  0  0  0  0  0  0  0  0
    0.0738   -0.2161   -1.0964 C   0  0  0  0  0  0  0  0  0  0  0  0
    0.9126   -1.0109   -2.0992 C   0  0  0  0  0  0  0  0  0  0  0  0
    2.3469   -0.4770   -2.1006 C   0  0  0  0  0  0  0  0  0  0  0  0
    2.9335   -0.5969   -0.6905 C   0  0  0  0  0  0  0  0  0  0  0  0
    2.8090   -1.9909   -0.2434 N   0  0  0  0  0  0  0  0  0  0  0  0
    1.4874   -2.6315   -0.2873 C   0  0  0  0  0  0  0  0  0  0  0  0
    0.9170   -2.4889   -1.7019 C   0  0  0  0  0  0  0  0  0  0  0  0
    3.8866   -2.6693    0.1981 C   0  0  0  0  0  0  0  0  0  0  0  0
    3.7591   -3.7986    0.6298 O   0  0  0  0  0  0  0  0  0  0  0  0
    5.2228   -2.0406    0.1575 C   0  0  0  0  0  0  0  0  0  0  0  0
    6.2971   -2.7154   -0.4262 C   0  0  0  0  0  0  0  0  0  0  0  0
    7.5424   -2.1252   -0.4620 C   0  0  0  0  0  0  0  0  0  0  0  0
    7.7306   -0.8635    0.0801 C   0  0  0  0  0  0  0  0  0  0  0  0
    6.6669   -0.1873    0.6623 C   0  0  0  0  0  0  0  0  0  0  0  0
    5.4145   -0.7673    0.6975 C   0  0  0  0  0  0  0  0  0  0  0  0
    6.8564    1.0419    1.1898 F   0  0  0  0  0  0  0  0  0  0  0  0
    8.9532   -0.2899    0.0422 F   0  0  0  0  0  0  0  0  0  0  0  0
    0.3209   -0.8633   -3.4772 C   0  0  0  0  0  0  0  0  0  0  0  0
    0.2243    0.2414   -3.9840 O   0  0  0  0  0  0  0  0  0  0  0  0
   -0.0613   -1.8485   -4.0853 O   0  0  0  0  0  1  0  0  0  0  0  0
    1.0911    1.6409   -1.4936 H   0  0  0  0  0  0  0  0  0  0  0  0
   -0.3584    1.3686   -2.4903 H   0  0  0  0  0  0  0  0  0  0  0  0
   -0.5284    1.8278   -0.7790 H   0  0  0  0  0  0  0  0  0  0  0  0
    0.5014   -0.3231   -0.0995 H   0  0  0  0  0  0  0  0  0  0  0  0
   -0.9481   -0.5954   -1.0961 H   0  0  0  0  0  0  0  0  0  0  0  0
    2.9510   -1.0590   -2.7966 H   0  0  0  0  0  0  0  0  0  0  0  0
    2.3453    0.5692   -2.4062 H   0  0  0  0  0  0  0  0  0  0  0  0
    3.9852   -0.3109   -0.7067 H   0  0  0  0  0  0  0  0  0  0  0  0
    2.3858    0.0553   -0.0102 H   0  0  0  0  0  0  0  0  0  0  0  0
    1.5850   -3.6880   -0.0374 H   0  0  0  0  0  0  0  0  0  0  0  0
    0.8218   -2.1452    0.4259 H   0  0  0  0  0  0  0  0  0  0  0  0
   -0.1022   -2.8745   -1.7237 H   0  0  0  0  0  0  0  0  0  0  0  0
    1.5347   -3.0519   -2.4016 H   0  0  0  0  0  0  0  0  0  0  0  0
    6.1526   -3.6987   -0.8488 H   0  0  0  0  0  0  0  0  0  0  0  0
    8.3733   -2.6472   -0.9131 H   0  0  0  0  0  0  0  0  0  0  0  0
    4.5859   -0.2392    1.1458 H   0  0  0  0  0  0  0  0  0  0  0  0
  1  2  1  0  0  0  0
  1 22  1  0  0  0  0
  1 23  1  0  0  0  0
  1 24  1  0  0  0  0
  2  3  1  0  0  0  0
  2 25  1  0  0  0  0
  2 26  1  0  0  0  0
  3  8  1  0  0  0  0
  3  4  1  0  0  0  0
  3 19  1  0  0  0  0
  4  5  1  0  0  0  0
  4 27  1  0  0  0  0
  4 28  1  0  0  0  0
  5  6  1  0  0  0  0
  5 29  1  0  0  0  0
  5 30  1  0  0  0  0
  6  7  1  0  0  0  0
  6  9  1  0  0  0  0
  7  8  1  0  0  0  0
  7 31  1  0  0  0  0
  7 32  1  0  0  0  0
  8 33  1  0  0  0  0
  8 34  1  0  0  0  0
  9 10  2  0  0  0  0
  9 11  1  0  0  0  0
 11 16  2  0  0  0  0
 11 12  1  0  0  0  0
 12 13  2  0  0  0  0
 12 35  1  0  0  0  0
 13 14  1  0  0  0  0
 13 36  1  0  0  0  0
 14 15  2  0  0  0  0
 14 18  1  0  0  0  0
 15 16  1  0  0  0  0
 15 17  1  0  0  0  0
 16 37  1  0  0  0  0
 19 20  2  0  0  0  0
 19 21  1  0  0  0  0
M  END
$$$$
ZINC58407187
 OpenBabel01252620473D

 58 60  0  0  0  0  0  0  0  0999 V2000
   -1.1372    0.2362    0.9431 C   0  0  0  0  0  0  0  0  0  0  0  0
   -0.7876   -1.2528    0.9823 C   0  0  0  0  0  0  0  0  0  0  0  0
    0.0922   -1.5068    2.0793 O   0  0  0  0  0  0  0  0  0  0  0  0
    0.4989   -2.7808    2.2559 C   0  0  0  0  0  0  0  0  0  0  0  0
    0.1162   -3.6520    1.4981 O   0  0  0  0  0  0  0  0  0  0  0  0
    1.4010   -3.1149    3.3595 C   0  0  0  0  0  0  0  0  0  0  0  0
    0.8910   -3.5032    4.6636 C   0  0  0  0  0  0  0  0  0  0  0  0
    1.8506   -3.7792    5.5723 C   0  0  0  0  0  0  0  0  0  0  0  0
    3.3735   -3.5280    4.7085 S   0  0  0  0  0  0  0  0  0  0  0  0
    2.7791   -3.0800    3.2032 C   0  0  0  0  0  0  0  0  0  0  0  0
    3.4991   -2.7500    2.0673 N   0  0  0  0  0  0  0  0  0  0  0  0
    4.8465   -2.7690    2.0943 C   0  0  0  0  0  0  0  0  0  0  0  0
    5.4302   -3.0762    3.1166 O   0  0  0  0  0  0  0  0  0  0  0  0
    5.6105   -2.4187    0.8887 C   0  0  0  0  0  0  0  0  0  0  0  0
    6.9819   -2.5648    0.8748 C   0  0  0  0  0  0  0  0  0  0  0  0
    7.6602   -3.2128    1.9981 C   0  0  0  0  0  0  0  0  0  0  0  0
    7.4694   -4.5442    2.4433 C   0  0  0  0  0  0  0  0  0  0  0  0
    8.2536   -4.7434    3.4654 N   0  0  0  0  0  0  0  0  0  0  0  0
    8.9742   -3.5724    3.7238 N   0  0  0  0  0  0  0  0  0  0  0  0
    8.6162   -2.6419    2.8251 C   0  0  0  0  0  0  0  0  0  0  0  0
    9.1509   -1.2359    2.7340 C   0  0  0  0  0  0  0  0  0  0  0  0
    9.9593   -3.3934    4.7932 C   0  0  0  0  0  0  0  0  0  0  0  0
   11.3475   -3.7778    4.2773 C   0  0  0  0  0  0  0  0  0  0  0  0
   12.3609   -3.5937    5.3773 C   0  0  0  0  0  0  0  0  0  0  0  0
   12.0058   -3.1923    6.4724 O   0  0  0  0  0  0  0  0  0  0  0  0
   13.5360   -3.8462    5.1722 O   0  0  0  0  0  1  0  0  0  0  0  0
    6.5253   -5.5528    1.8413 C   0  0  0  0  0  0  0  0  0  0  0  0
    4.9312   -1.9257   -0.2715 C   0  0  0  0  0  0  0  0  0  0  0  0
    4.3923   -1.5346   -1.1918 N   0  0  0  0  0  0  0  0  0  0  0  0
    1.6477   -4.2023    6.9945 C   0  0  0  0  0  0  0  0  0  0  0  0
    0.1897   -3.9128    7.3805 C   0  0  0  0  0  0  0  0  0  0  0  0
   -0.7304   -4.4528    6.2820 C   0  0  0  0  0  0  0  0  0  0  0  0
   -0.5856   -3.6036    5.0172 C   0  0  0  0  0  0  0  0  0  0  0  0
   -0.2252    0.8204    0.8202 H   0  0  0  0  0  0  0  0  0  0  0  0
   -1.8082    0.4299    0.1063 H   0  0  0  0  0  0  0  0  0  0  0  0
   -1.6271    0.5190    1.8748 H   0  0  0  0  0  0  0  0  0  0  0  0
   -1.6995   -1.8371    1.1051 H   0  0  0  0  0  0  0  0  0  0  0  0
   -0.2976   -1.5357    0.0506 H   0  0  0  0  0  0  0  0  0  0  0  0
    3.0337   -2.5050    1.2522 H   0  0  0  0  0  0  0  0  0  0  0  0
    7.5552   -2.2010    0.0350 H   0  0  0  0  0  0  0  0  0  0  0  0
    8.5386   -0.5740    3.3465 H   0  0  0  0  0  0  0  0  0  0  0  0
   10.1799   -1.2146    3.0930 H   0  0  0  0  0  0  0  0  0  0  0  0
    9.1209   -0.9022    1.6968 H   0  0  0  0  0  0  0  0  0  0  0  0
    9.9656   -2.3507    5.1106 H   0  0  0  0  0  0  0  0  0  0  0  0
    9.6971   -4.0292    5.6388 H   0  0  0  0  0  0  0  0  0  0  0  0
   11.3413   -4.8205    3.9598 H   0  0  0  0  0  0  0  0  0  0  0  0
   11.6097   -3.1421    3.4316 H   0  0  0  0  0  0  0  0  0  0  0  0
    7.0672   -6.1809    1.1342 H   0  0  0  0  0  0  0  0  0  0  0  0
    6.1055   -6.1747    2.6320 H   0  0  0  0  0  0  0  0  0  0  0  0
    5.7203   -5.0325    1.3223 H   0  0  0  0  0  0  0  0  0  0  0  0
    1.8488   -5.2691    7.0927 H   0  0  0  0  0  0  0  0  0  0  0  0
    2.3184   -3.6401    7.6443 H   0  0  0  0  0  0  0  0  0  0  0  0
   -0.0423   -4.4042    8.3254 H   0  0  0  0  0  0  0  0  0  0  0  0
    0.0455   -2.8371    7.4814 H   0  0  0  0  0  0  0  0  0  0  0  0
   -0.4600   -5.4847    6.0581 H   0  0  0  0  0  0  0  0  0  0  0  0
   -1.7642   -4.4172    6.6256 H   0  0  0  0  0  0  0  0  0  0  0  0
   -0.9868   -2.6065    5.1985 H   0  0  0  0  0  0  0  0  0  0  0  0
   -1.1269   -4.0744    4.1965 H   0  0  0  0  0  0  0  0  0  0  0  0
  1  2  1  0  0  0  0
  1 34  1  0  0  0  0
  1 35  1  0  0  0  0
  1 36  1  0  0  0  0
  2  3  1  0  0  0  0
  2 37  1  0  0  0  0
  2 38  1  0  0  0  0
  3  4  1  0  0  0  0
  4  5  2  0  0  0  0
  4  6  1  0  0  0  0
  6 10  2  0  0  0  0
  6  7  1  0  0  0  0
  7 33  1  0  0  0  0
  7  8  2  0  0  0  0
  8  9  1  0  0  0  0
  8 30  1  0  0  0  0
  9 10  1  0  0  0  0
 10 11  1  0  0  0  0
 11 12  1  0  0  0  0
 11 39  1  0  0  0  0
 12 13  2  0  0  0  0
 12 14  1  0  0  0  0
 14 15  2  0  0  0  0
 14 28  1  0  0  0  0
 15 16  1  0  0  0  0
 15 40  1  0  0  0  0
 16 20  2  0  0  0  0
 16 17  1  0  0  0  0
 17 18  2  0  0  0  0
 17 27  1  0  0  0  0
 18 19  1  0  0  0  0
 19 20  1  0  0  0  0
 19 22  1  0  0  0  0
 20 21  1  0  0  0  0
 21 41  1  0  0  0  0
 21 42  1  0  0  0  0
 21 43  1  0  0  0  0
 22 23  1  0  0  0  0
 22 44  1  0  0  0  0
 22 45  1  0  0  0  0
 23 24  1  0  0  0  0
 23 46  1  0  0  0  0
 23 47  1  0  0  0  0
 24 25  2  0  0  0  0
 24 26  1  0  0  0  0
 27 48  1  0  0  0  0
 27 49  1  0  0  0  0
 27 50  1  0  0  0  0
 28 29  3  0  0  0  0
 30 31  1  0  0  0  0
 30 51  1  0  0  0  0
 30 52  1  0  0  0  0
 31 32  1  0  0  0  0
 31 53  1  0  0  0  0
 31 54  1  0  0  0  0
 32 33  1  0  0  0  0
 32 55  1  0  0  0  0
 32 56  1  0  0  0  0
 33 57  1  0  0  0  0
 33 58  1  0  0  0  0
M  END
$$$$
ZINC12917273
 OpenBabel01252620473D

 50 53  0  0  0  0  0  0  0  0999 V2000
   -1.0805    1.9149    0.0167 C   0  0  0  0  0  0  0  0  0  0  0  0
   -0.8658    3.2748    0.0279 C   0  0  0  0  0  0  0  0  0  0  0  0
    0.4258    3.7375    0.0181 C   0  0  0  0  0  0  0  0  0  0  0  0
    1.3606    2.2165    0.0010 S   0  0  0  0  0  0  0  0  0  0  0  0
   -0.0126    1.0758    0.0080 C   0  0  0  0  0  0  0  0  0  0  0  0
    0.9137    5.1260    0.0205 C   0  0  0  0  0  0  0  0  0  0  0  0
    0.2125    6.2009    0.3066 N   0  0  0  0  0  0  0  0  0  0  0  0
    0.9534    7.2464    0.2104 N   0  0  0  0  0  0  0  0  0  0  0  0
    2.1722    6.9065   -0.1424 C   0  0  0  0  0  0  0  0  0  0  0  0
    2.1929    5.5454   -0.2707 N   0  0  0  0  0  0  0  0  0  0  0  0
    3.3360    4.7083   -0.6433 C   0  0  0  0  0  0  0  0  0  0  0  0
    3.3744    4.5483   -2.1412 C   0  0  0  0  0  0  0  0  0  0  0  0
    2.5301    5.0811   -2.8298 O   0  0  0  0  0  0  0  0  0  0  0  0
    4.3471    3.8132   -2.7157 N   0  0  0  0  0  0  0  0  0  0  0  0
    3.5297    8.0006   -0.3966 S   0  0  0  0  0  0  0  0  0  0  0  0
    2.7294    9.5836   -0.0362 C   0  0  0  0  0  0  0  0  0  0  0  0
    3.7296   10.6997   -0.1942 C   0  0  0  0  0  0  0  0  0  0  0  0
    4.8715   10.4494   -0.5188 O   0  0  0  0  0  0  0  0  0  0  0  0
    3.3227   12.0879    0.0442 C   0  0  0  0  0  0  0  0  0  0  0  0
    4.1432   13.2366   -0.0634 C   0  0  0  0  0  0  0  0  0  0  0  0
    3.3648   14.3118    0.2433 C   0  0  0  0  0  0  0  0  0  0  0  0
    2.0954   13.8607    0.5351 N   0  0  0  0  0  0  0  0  0  0  0  0
    1.3445   14.4213    0.7860 H   0  0  0  0  0  0  0  0  0  0  0  0
    2.0600   12.5258    0.4120 C   0  0  0  0  0  0  0  0  0  0  0  0
    3.8034   15.7131    0.2597 C   0  0  0  0  0  0  0  0  0  0  0  0
    4.9544   15.9936   -0.0175 O   0  0  0  0  0  0  0  0  0  0  0  0
    2.9310   16.6886    0.5818 N   0  0  0  0  0  0  0  0  0  0  0  0
    1.5161   16.4921    0.9299 C   0  0  0  0  0  0  0  0  0  0  0  0
    0.9121   17.8867    1.1976 C   0  0  0  0  0  0  0  0  0  0  0  0
    1.8710   18.8322    0.4269 C   0  0  0  0  0  0  0  0  0  0  0  0
    3.2357   18.1299    0.6373 C   0  0  0  0  0  0  0  0  0  0  0  0
   -2.0858    1.5202    0.0184 H   0  0  0  0  0  0  0  0  0  0  0  0
   -1.6976    3.9637    0.0393 H   0  0  0  0  0  0  0  0  0  0  0  0
    0.0021   -0.0041    0.0020 H   0  0  0  0  0  0  0  0  0  0  0  0
    4.2580    5.1807   -0.3045 H   0  0  0  0  0  0  0  0  0  0  0  0
    3.2367    3.7287   -0.1757 H   0  0  0  0  0  0  0  0  0  0  0  0
    5.0223    3.3871   -2.1650 H   0  0  0  0  0  0  0  0  0  0  0  0
    4.3718    3.7102   -3.6799 H   0  0  0  0  0  0  0  0  0  0  0  0
    1.9693    9.7249   -0.6705 H   0  0  0  0  0  0  0  0  0  0  0  0
    2.3525    9.5756    0.9866 H   0  0  0  0  0  0  0  0  0  0  0  0
    5.1879   13.2567   -0.3365 H   0  0  0  0  0  0  0  0  0  0  0  0
    1.1957   11.8987    0.5740 H   0  0  0  0  0  0  0  0  0  0  0  0
    0.9938   16.0126    0.1020 H   0  0  0  0  0  0  0  0  0  0  0  0
    1.4368   15.8776    1.8267 H   0  0  0  0  0  0  0  0  0  0  0  0
    0.9187   18.1157    2.2632 H   0  0  0  0  0  0  0  0  0  0  0  0
   -0.0986   17.9505    0.7946 H   0  0  0  0  0  0  0  0  0  0  0  0
    1.8730   19.8296    0.8665 H   0  0  0  0  0  0  0  0  0  0  0  0
    1.6120   18.8737   -0.6310 H   0  0  0  0  0  0  0  0  0  0  0  0
    3.6515   18.3926    1.6101 H   0  0  0  0  0  0  0  0  0  0  0  0
    3.9290   18.4020   -0.1585 H   0  0  0  0  0  0  0  0  0  0  0  0
  1  5  2  0  0  0  0
  1  2  1  0  0  0  0
  1 32  1  0  0  0  0
  2  3  2  0  0  0  0
  2 33  1  0  0  0  0
  3  4  1  0  0  0  0
  3  6  1  0  0  0  0
  4  5  1  0  0  0  0
  5 34  1  0  0  0  0
  6 10  1  0  0  0  0
  6  7  2  0  0  0  0
  7  8  1  0  0  0  0
  8  9  2  0  0  0  0
  9 10  1  0  0  0  0
  9 15  1  0  0  0  0
 10 11  1  0  0  0  0
 11 12  1  0  0  0  0
 11 35  1  0  0  0  0
 11 36  1  0  0  0  0
 12 13  2  0  0  0  0
 12 14  1  0  0  0  0
 14 37  1  0  0  0  0
 14 38  1  0  0  0  0
 15 16  1  0  0  0  0
 16 17  1  0  0  0  0
 16 39  1  0  0  0  0
 16 40  1  0  0  0  0
 17 18  2  0  0  0  0
 17 19  1  0  0  0  0
 19 24  2  0  0  0  0
 19 20  1  0  0  0  0
 20 21  2  0  0  0  0
 20 41  1  0  0  0  0
 21 22  1  0  0  0  0
 21 25  1  0  0  0  0
 22 23  1  0  0  0  0
 22 24  1  0  0  0  0
 24 42  1  0  0  0  0
 25 26  2  0  0  0  0
 25 27  1  0  0  0  0
 27 31  1  0  0  0  0
 27 28  1  0  0  0  0
 28 29  1  0  0  0  0
 28 43  1  0  0  0  0
 28 44  1  0  0  0  0
 29 30  1  0  0  0  0
 29 45  1  0  0  0  0
 29 46  1  0  0  0  0
 30 31  1  0  0  0  0
 30 47  1  0  0  0  0
 30 48  1  0  0  0  0
 31 49  1  0  0  0  0
 31 50  1  0  0  0  0
M  END
$$$$
ZINC35024484
 OpenBabel01252620473D

 59 63  0  0  1  0  0  0  0  0999 V2000
   -0.3700    1.4033   -0.9737 C   0  0  0  0  0  0  0  0  0  0  0  0
   -0.2160   -0.1037   -0.7595 C   0  0  0  0  0  0  0  0  0  0  0  0
    0.7169   -0.6267   -1.7072 O   0  0  0  0  0  0  0  0  0  0  0  0
    1.0475   -1.9404   -1.5877 C   0  0  0  0  0  0  0  0  0  0  0  0
    0.4058   -2.7356   -0.6518 C   0  0  0  0  0  0  0  0  0  0  0  0
    0.7427   -4.0710   -0.5320 C   0  0  0  0  0  0  0  0  0  0  0  0
    1.7198   -4.6161   -1.3442 C   0  0  0  0  0  0  0  0  0  0  0  0
    2.3641   -3.8283   -2.2797 C   0  0  0  0  0  0  0  0  0  0  0  0
    2.0269   -2.4905   -2.4091 C   0  0  0  0  0  0  0  0  0  0  0  0
    2.6556   -1.7155   -3.3330 O   0  0  0  0  0  0  0  0  0  0  0  0
    0.0438   -4.9342    0.4865 C   0  0  2  0  0  0  0  0  0  0  0  0
   -0.8244   -4.4115    0.8878 H   0  0  0  0  0  0  0  0  0  0  0  0
    0.9956   -5.2940    1.6034 C   0  0  0  0  0  0  0  0  0  0  0  0
    1.6751   -4.3611    2.5079 C   0  0  0  0  0  0  0  0  0  0  0  0
    0.8843   -3.4626    3.3717 C   0  0  0  0  0  0  0  0  0  0  0  0
   -0.5082   -3.5804    3.4239 C   0  0  0  0  0  0  0  0  0  0  0  0
   -1.2426   -2.7458    4.2318 C   0  0  0  0  0  0  0  0  0  0  0  0
   -0.6081   -1.7724    5.0063 C   0  0  0  0  0  0  0  0  0  0  0  0
    0.7779   -1.6545    4.9442 C   0  0  0  0  0  0  0  0  0  0  0  0
    1.5222   -2.4900    4.1491 C   0  0  0  0  0  0  0  0  0  0  0  0
    1.1671   -0.5114    5.8620 C   0  0  0  0  0  0  0  0  0  0  0  0
   -0.1917    0.1923    6.0894 C   0  0  1  0  0  0  0  0  0  0  0  0
   -0.3357    0.9961    5.3675 H   0  0  0  0  0  0  0  0  0  0  0  0
   -1.1396   -0.8657    5.8693 O   0  0  0  0  0  0  0  0  0  0  0  0
   -0.2925    0.7266    7.5196 C   0  0  0  0  0  0  0  0  0  0  0  0
    2.8910   -4.3277    2.5465 O   0  0  0  0  0  0  0  0  0  0  0  0
    1.1002   -6.6432    1.6079 C   0  0  0  0  0  0  0  0  0  0  0  0
    1.8604   -7.3677    2.4611 O   0  5  0  0  0  0  0  0  0  0  0  0
    0.2518   -7.1997    0.5333 C   0  0  0  0  0  0  0  0  0  0  0  0
    0.1313   -8.3823    0.2818 O   0  0  0  0  0  0  0  0  0  0  0  0
   -0.3678   -6.2033   -0.1250 N   0  0  0  0  0  0  0  0  0  0  0  0
   -1.2905   -6.3578   -1.2524 C   0  0  0  0  0  0  0  0  0  0  0  0
   -0.5147   -6.3289   -2.5440 C   0  0  0  0  0  0  0  0  0  0  0  0
    0.0073   -7.3977   -3.1722 C   0  0  0  0  0  0  0  0  0  0  0  0
    0.6465   -6.9161   -4.3377 C   0  0  0  0  0  0  0  0  0  0  0  0
    0.4767   -5.5818   -4.3521 C   0  0  0  0  0  0  0  0  0  0  0  0
   -0.2323   -5.2324   -3.2663 O   0  0  0  0  0  0  0  0  0  0  0  0
    0.5960    1.8900   -0.8392 H   0  0  0  0  0  0  0  0  0  0  0  0
   -0.7341    1.5914   -1.9838 H   0  0  0  0  0  0  0  0  0  0  0  0
   -1.0817    1.8022   -0.2509 H   0  0  0  0  0  0  0  0  0  0  0  0
    0.1480   -0.2918    0.2506 H   0  0  0  0  0  0  0  0  0  0  0  0
   -1.1820   -0.5904   -0.8941 H   0  0  0  0  0  0  0  0  0  0  0  0
   -0.3572   -2.3120   -0.0156 H   0  0  0  0  0  0  0  0  0  0  0  0
    1.9804   -5.6597   -1.2473 H   0  0  0  0  0  0  0  0  0  0  0  0
    3.1273   -4.2565   -2.9126 H   0  0  0  0  0  0  0  0  0  0  0  0
    3.4549   -1.2819   -3.0043 H   0  0  0  0  0  0  0  0  0  0  0  0
   -1.0080   -4.3292    2.8274 H   0  0  0  0  0  0  0  0  0  0  0  0
   -2.3176   -2.8431    4.2677 H   0  0  0  0  0  0  0  0  0  0  0  0
    2.5975   -2.3936    4.1201 H   0  0  0  0  0  0  0  0  0  0  0  0
    1.5734   -0.8869    6.8012 H   0  0  0  0  0  0  0  0  0  0  0  0
    1.8751    0.1574    5.3726 H   0  0  0  0  0  0  0  0  0  0  0  0
    0.5091    1.4436    7.6969 H   0  0  0  0  0  0  0  0  0  0  0  0
   -1.2560    1.2175    7.6569 H   0  0  0  0  0  0  0  0  0  0  0  0
   -0.2025   -0.1006    8.2237 H   0  0  0  0  0  0  0  0  0  0  0  0
   -1.8151   -7.3093   -1.1648 H   0  0  0  0  0  0  0  0  0  0  0  0
   -2.0136   -5.5422   -1.2445 H   0  0  0  0  0  0  0  0  0  0  0  0
   -0.0502   -8.4263   -2.8480 H   0  0  0  0  0  0  0  0  0  0  0  0
    1.1707   -7.5062   -5.0748 H   0  0  0  0  0  0  0  0  0  0  0  0
    0.8447   -4.9064   -5.1103 H   0  0  0  0  0  0  0  0  0  0  0  0
  1  2  1  0  0  0  0
  1 38  1  0  0  0  0
  1 39  1  0  0  0  0
  1 40  1  0  0  0  0
  2  3  1  0  0  0  0
  2 41  1  0  0  0  0
  2 42  1  0  0  0  0
  3  4  1  0  0  0  0
  4  9  2  0  0  0  0
  4  5  1  0  0  0  0
  5  6  2  0  0  0  0
  5 43  1  0  0  0  0
  6  7  1  0  0  0  0
  6 11  1  0  0  0  0
  7  8  2  0  0  0  0
  7 44  1  0  0  0  0
  8  9  1  0  0  0  0
  8 45  1  0  0  0  0
  9 10  1  0  0  0  0
 10 46  1  0  0  0  0
 11 13  1  0  0  0  0
 11 31  1  0  0  0  0
 11 12  1  1  0  0  0
 13 27  2  0  0  0  0
 13 14  1  0  0  0  0
 14 26  2  0  0  0  0
 14 15  1  0  0  0  0
 15 20  2  0  0  0  0
 15 16  1  0  0  0  0
 16 17  2  0  0  0  0
 16 47  1  0  0  0  0
 17 18  1  0  0  0  0
 17 48  1  0  0  0  0
 18 24  1  0  0  0  0
 18 19  2  0  0  0  0
 19 20  1  0  0  0  0
 19 21  1  0  0  0  0
 20 49  1  0  0  0  0
 21 22  1  0  0  0  0
 21 50  1  0  0  0  0
 21 51  1  0  0  0  0
 22 23  1  6  0  0  0
 22 24  1  0  0  0  0
 22 25  1  0  0  0  0
 25 52  1  0  0  0  0
 25 53  1  0  0  0  0
 25 54  1  0  0  0  0
 27 29  1  0  0  0  0
 27 28  1  0  0  0  0
 29 31  1  0  0  0  0
 29 30  2  0  0  0  0
 31 32  1  0  0  0  0
 32 33  1  0  0  0  0
 32 55  1  0  0  0  0
 32 56  1  0  0  0  0
 33 37  1  0  0  0  0
 33 34  2  0  0  0  0
 34 35  1  0  0  0  0
 34 57  1  0  0  0  0
 35 36  2  0  0  0  0
 35 58  1  0  0  0  0
 36 37  1  0  0  0  0
 36 59  1  0  0  0  0
M  CHG  1  28  -1
M  END
$$$$
ZINC38290757
 OpenBabel01252620473D

 29 30  0  0  0  0  0  0  0  0999 V2000
   -0.8019    1.4751    0.0957 C   0  0  0  0  0  0  0  0  0  0  0  0
   -0.4899    0.0017    0.0436 C   0  0  0  0  0  0  0  0  0  0  0  0
   -0.4779   -0.6560   -1.1653 C   0  0  0  0  0  0  0  0  0  0  0  0
   -0.1882   -2.0237   -1.2128 C   0  0  0  0  0  0  0  0  0  0  0  0
    0.0885   -2.7184   -0.0302 C   0  0  0  0  0  0  0  0  0  0  0  0
    0.0748   -2.0547    1.1750 C   0  0  0  0  0  0  0  0  0  0  0  0
   -0.2086   -0.6916    1.2180 C   0  0  0  0  0  0  0  0  0  0  0  0
   -0.2160   -0.0227    2.4372 N   0  0  0  0  0  0  0  0  0  0  0  0
    0.0444   -0.6635    3.5260 N   0  0  0  0  0  0  0  0  0  0  0  0
    0.1461   -0.0095    4.6688 C   0  0  0  0  0  0  0  0  0  0  0  0
    0.1239    1.4621    4.7185 C   0  0  0  0  0  0  0  0  0  0  0  0
   -0.0019    2.1895    3.5882 O   0  5  0  0  0  0  0  0  0  0  0  0
    0.2295    2.0538    5.8946 N   0  0  0  0  0  0  0  0  0  0  0  0
    0.3542    1.3633    7.0254 C   0  0  0  0  0  0  0  0  0  0  0  0
    0.4831    2.2337    8.4939 S   0  0  0  0  0  0  0  0  0  0  0  0
    0.3842    0.0237    7.0787 N   0  0  0  0  0  0  0  0  0  0  0  0
    0.2810   -0.7212    5.9570 C   0  0  0  0  0  0  0  0  0  0  0  0
    0.3027   -1.9367    6.0049 O   0  0  0  0  0  0  0  0  0  0  0  0
   -0.1748   -2.7310   -2.5048 C   0  0  0  0  0  0  0  0  0  0  0  0
   -0.4173   -2.1224   -3.5378 O   0  0  0  0  0  0  0  0  0  0  0  0
    0.0787   -3.9271   -2.5447 O   0  0  0  0  0  1  0  0  0  0  0  0
    0.1214    2.0458   -0.0038 H   0  0  0  0  0  0  0  0  0  0  0  0
   -1.4778    1.7324   -0.7198 H   0  0  0  0  0  0  0  0  0  0  0  0
   -1.2751    1.7128    1.0485 H   0  0  0  0  0  0  0  0  0  0  0  0
   -0.6922   -0.1169   -2.0762 H   0  0  0  0  0  0  0  0  0  0  0  0
    0.3122   -3.7744   -0.0632 H   0  0  0  0  0  0  0  0  0  0  0  0
    0.2879   -2.5904    2.0882 H   0  0  0  0  0  0  0  0  0  0  0  0
   -0.4171    0.9257    2.4688 H   0  0  0  0  0  0  0  0  0  0  0  0
    0.4777   -0.4175    7.9374 H   0  0  0  0  0  0  0  0  0  0  0  0
  1  2  1  0  0  0  0
  1 22  1  0  0  0  0
  1 23  1  0  0  0  0
  1 24  1  0  0  0  0
  2  7  2  0  0  0  0
  2  3  1  0  0  0  0
  3  4  2  0  0  0  0
  3 25  1  0  0  0  0
  4  5  1  0  0  0  0
  4 19  1  0  0  0  0
  5  6  2  0  0  0  0
  5 26  1  0  0  0  0
  6  7  1  0  0  0  0
  6 27  1  0  0  0  0
  7  8  1  0  0  0  0
  8  9  1  0  0  0  0
  8 28  1  0  0  0  0
  9 10  2  0  0  0  0
 10 17  1  0  0  0  0
 10 11  1  0  0  0  0
 11 12  1  0  0  0  0
 11 13  2  0  0  0  0
 13 14  1  0  0  0  0
 14 15  2  0  0  0  0
 14 16  1  0  0  0  0
 16 17  1  0  0  0  0
 16 29  1  0  0  0  0
 17 18  2  0  0  0  0
 19 20  2  0  0  0  0
 19 21  1  0  0  0  0
M  CHG  1  12  -1
M  END
$$$$
ZINC63744821
 OpenBabel01252620473D

 51 51  0  0  0  0  0  0  0  0999 V2000
    0.3339    1.9810    0.5527 C   0  0  0  0  0  0  0  0  0  0  0  0
    0.3501    0.4695    0.3157 C   0  0  0  0  0  0  0  0  0  0  0  0
   -1.0805   -0.0282    0.0998 C   0  0  0  0  0  0  0  0  0  0  0  0
   -1.0542   -1.5150   -0.2603 C   0  0  0  0  0  0  0  0  0  0  0  0
   -2.4713   -1.9831   -0.5977 C   0  0  0  0  0  0  0  0  0  0  0  0
   -1.8547    0.1631    1.3286 N   0  0  0  0  0  0  0  0  0  0  0  0
   -1.4347   -0.4940    2.5688 C   0  0  0  0  0  0  0  0  0  0  0  0
   -2.9535    0.9436    1.3182 C   0  0  0  0  0  0  0  0  0  0  0  0
   -3.3012    1.4876    0.2915 O   0  0  0  0  0  0  0  0  0  0  0  0
   -3.7499    1.1403    2.5823 C   0  0  0  0  0  0  0  0  0  0  0  0
   -5.1576    2.2340    2.2460 S   0  0  0  0  0  0  0  0  0  0  0  0
   -4.6987    3.5475    1.9572 O   0  0  0  0  0  0  0  0  0  0  0  0
   -6.0867    1.5861    1.3880 O   0  0  0  0  0  0  0  0  0  0  0  0
   -5.9459    2.3711    3.6959 N   0  0  0  0  0  2  0  0  0  0  0  0
   -7.0986    3.1584    3.7939 C   0  0  0  0  0  0  0  0  0  0  0  0
   -7.5851    3.8202    2.6742 C   0  0  0  0  0  0  0  0  0  0  0  0
   -8.7231    4.5967    2.7717 C   0  0  0  0  0  0  0  0  0  0  0  0
   -9.3801    4.7154    3.9875 C   0  0  0  0  0  0  0  0  0  0  0  0
   -8.8946    4.0551    5.1064 C   0  0  0  0  0  0  0  0  0  0  0  0
   -7.7599    3.2736    5.0094 C   0  0  0  0  0  0  0  0  0  0  0  0
  -10.5006    5.4802    4.0825 O   0  0  0  0  0  0  0  0  0  0  0  0
  -11.0129    6.0343    2.8690 C   0  0  0  0  0  0  0  0  0  0  0  0
  -12.5106    6.3052    3.0244 C   0  0  0  0  0  0  0  0  0  0  0  0
  -10.2867    7.3451    2.5604 C   0  0  0  0  0  0  0  0  0  0  0  0
    1.3530    2.3356    0.7065 H   0  0  0  0  0  0  0  0  0  0  0  0
   -0.0975    2.4802   -0.3150 H   0  0  0  0  0  0  0  0  0  0  0  0
   -0.2655    2.2039    1.4354 H   0  0  0  0  0  0  0  0  0  0  0  0
    0.9495    0.2466   -0.5671 H   0  0  0  0  0  0  0  0  0  0  0  0
    0.7815   -0.0297    1.1833 H   0  0  0  0  0  0  0  0  0  0  0  0
   -1.5422    0.5340   -0.7119 H   0  0  0  0  0  0  0  0  0  0  0  0
   -0.4058   -1.6686   -1.1228 H   0  0  0  0  0  0  0  0  0  0  0  0
   -0.6745   -2.0872    0.5862 H   0  0  0  0  0  0  0  0  0  0  0  0
   -2.4526   -3.0424   -0.8542 H   0  0  0  0  0  0  0  0  0  0  0  0
   -3.1197   -1.8296    0.2649 H   0  0  0  0  0  0  0  0  0  0  0  0
   -2.8510   -1.4110   -1.4442 H   0  0  0  0  0  0  0  0  0  0  0  0
   -0.7529    0.1593    3.1133 H   0  0  0  0  0  0  0  0  0  0  0  0
   -2.3098   -0.7005    3.1850 H   0  0  0  0  0  0  0  0  0  0  0  0
   -0.9289   -1.4298    2.3309 H   0  0  0  0  0  0  0  0  0  0  0  0
   -4.1153    0.1760    2.9354 H   0  0  0  0  0  0  0  0  0  0  0  0
   -3.1148    1.5899    3.3457 H   0  0  0  0  0  0  0  0  0  0  0  0
   -7.0734    3.7282    1.7276 H   0  0  0  0  0  0  0  0  0  0  0  0
   -9.1014    5.1118    1.9011 H   0  0  0  0  0  0  0  0  0  0  0  0
   -9.4066    4.1484    6.0528 H   0  0  0  0  0  0  0  0  0  0  0  0
   -7.3848    2.7557    5.8797 H   0  0  0  0  0  0  0  0  0  0  0  0
  -10.8538    5.3299    2.0525 H   0  0  0  0  0  0  0  0  0  0  0  0
  -12.6697    7.0096    3.8409 H   0  0  0  0  0  0  0  0  0  0  0  0
  -12.9014    6.7278    2.0987 H   0  0  0  0  0  0  0  0  0  0  0  0
  -13.0280    5.3713    3.2442 H   0  0  0  0  0  0  0  0  0  0  0  0
  -10.6775    7.7677    1.6348 H   0  0  0  0  0  0  0  0  0  0  0  0
  -10.4458    8.0495    3.3770 H   0  0  0  0  0  0  0  0  0  0  0  0
   -9.2197    7.1521    2.4498 H   0  0  0  0  0  0  0  0  0  0  0  0
  1  2  1  0  0  0  0
  1 25  1  0  0  0  0
  1 26  1  0  0  0  0
  1 27  1  0  0  0  0
  2  3  1  0  0  0  0
  2 28  1  0  0  0  0
  2 29  1  0  0  0  0
  3  4  1  0  0  0  0
  3  6  1  0  0  0  0
  3 30  1  0  0  0  0
  4  5  1  0  0  0  0
  4 31  1  0  0  0  0
  4 32  1  0  0  0  0
  5 33  1  0  0  0  0
  5 34  1  0  0  0  0
  5 35  1  0  0  0  0
  6  7  1  0  0  0  0
  6  8  1  0  0  0  0
  7 36  1  0  0  0  0
  7 37  1  0  0  0  0
  7 38  1  0  0  0  0
  8  9  2  0  0  0  0
  8 10  1  0  0  0  0
 10 11  1  0  0  0  0
 10 39  1  0  0  0  0
 10 40  1  0  0  0  0
 11 12  2  0  0  0  0
 11 13  2  0  0  0  0
 11 14  1  0  0  0  0
 14 15  1  0  0  0  0
 15 20  2  0  0  0  0
 15 16  1  0  0  0  0
 16 17  2  0  0  0  0
 16 41  1  0  0  0  0
 17 18  1  0  0  0  0
 17 42  1  0  0  0  0
 18 19  2  0  0  0  0
 18 21  1  0  0  0  0
 19 20  1  0  0  0  0
 19 43  1  0  0  0  0
 20 44  1  0  0  0  0
 21 22  1  0  0  0  0
 22 23  1  0  0  0  0
 22 24  1  0  0  0  0
 22 45  1  0  0  0  0
 23 46  1  0  0  0  0
 23 47  1  0  0  0  0
 23 48  1  0  0  0  0
 24 49  1  0  0  0  0
 24 50  1  0  0  0  0
 24 51  1  0  0  0  0
M  END
$$$$
ZINC33760824
 OpenBabel01252620473D

 53 56  0  0  1  0  0  0  0  0999 V2000
   -0.1359    2.0763   -1.6063 C   0  0  0  0  0  0  0  0  0  0  0  0
   -0.5940    2.2447   -0.2632 O   0  0  0  0  0  0  0  0  0  0  0  0
   -1.8953    1.7062   -0.0211 C   0  0  0  0  0  0  0  0  0  0  0  0
   -2.3018    1.9861    1.4271 C   0  0  0  0  0  0  0  0  0  0  0  0
   -2.5262    3.4232    1.6023 N   0  0  0  0  0  0  0  0  0  0  0  0
   -1.5480    4.3785    2.1301 C   0  0  2  0  0  0  0  0  0  0  0  0
   -1.2431    4.0731    3.1420 H   0  0  0  0  0  0  0  0  0  0  0  0
   -2.2180    5.7331    2.1238 C   0  0  0  0  0  0  0  0  0  0  0  0
   -1.6697    6.9297    2.5284 C   0  0  0  0  0  0  0  0  0  0  0  0
   -0.3120    6.9612    3.1073 C   0  0  0  0  0  0  0  0  0  0  0  0
    0.0595    6.0697    4.1221 C   0  0  0  0  0  0  0  0  0  0  0  0
    1.3411    6.1323    4.6311 C   0  0  0  0  0  0  0  0  0  0  0  0
    2.2059    7.0206    4.1818 N   0  0  0  0  0  0  0  0  0  0  0  0
    1.8972    7.8811    3.2316 C   0  0  0  0  0  0  0  0  0  0  0  0
    0.6400    7.8874    2.6614 C   0  0  0  0  0  0  0  0  0  0  0  0
   -2.3737    8.0738    2.3959 O   0  0  0  0  0  0  0  0  0  0  0  0
   -3.5156    5.5244    1.6208 C   0  0  0  0  0  0  0  0  0  0  0  0
   -4.3669    6.3796    1.4628 O   0  5  0  0  0  0  0  0  0  0  0  0
   -3.6654    4.0750    1.3156 C   0  0  0  0  0  0  0  0  0  0  0  0
   -4.6679    3.5588    0.8659 O   0  0  0  0  0  0  0  0  0  0  0  0
   -0.3263    4.4064    1.2483 C   0  0  0  0  0  0  0  0  0  0  0  0
   -0.4265    4.8524   -0.0569 C   0  0  0  0  0  0  0  0  0  0  0  0
    0.6924    4.8798   -0.8684 C   0  0  0  0  0  0  0  0  0  0  0  0
    1.9139    4.4610   -0.3773 C   0  0  0  0  0  0  0  0  0  0  0  0
    2.0170    4.0126    0.9316 C   0  0  0  0  0  0  0  0  0  0  0  0
    0.8936    3.9919    1.7459 C   0  0  0  0  0  0  0  0  0  0  0  0
    3.2174    3.6002    1.4170 O   0  0  0  0  0  0  0  0  0  0  0  0
    3.4276    2.2641    1.5477 C   0  0  0  0  0  0  0  0  0  0  0  0
    2.4738    1.3630    1.0962 C   0  0  0  0  0  0  0  0  0  0  0  0
    2.6928    0.0052    1.2247 C   0  0  0  0  0  0  0  0  0  0  0  0
    3.8556   -0.4561    1.8136 C   0  0  0  0  0  0  0  0  0  0  0  0
    4.8050    0.4397    2.2695 C   0  0  0  0  0  0  0  0  0  0  0  0
    4.5938    1.7984    2.1380 C   0  0  0  0  0  0  0  0  0  0  0  0
    0.8674    2.5154   -1.7092 H   0  0  0  0  0  0  0  0  0  0  0  0
   -0.8292    2.5800   -2.2960 H   0  0  0  0  0  0  0  0  0  0  0  0
   -0.0933    1.0039   -1.8474 H   0  0  0  0  0  0  0  0  0  0  0  0
   -2.6194    2.1764   -0.7027 H   0  0  0  0  0  0  0  0  0  0  0  0
   -1.8806    0.6200   -0.1944 H   0  0  0  0  0  0  0  0  0  0  0  0
   -3.2274    1.4394    1.6604 H   0  0  0  0  0  0  0  0  0  0  0  0
   -1.5001    1.6551    2.1036 H   0  0  0  0  0  0  0  0  0  0  0  0
   -0.6449    5.3422    4.4979 H   0  0  0  0  0  0  0  0  0  0  0  0
    1.6384    5.4470    5.4110 H   0  0  0  0  0  0  0  0  0  0  0  0
    2.6381    8.5910    2.8949 H   0  0  0  0  0  0  0  0  0  0  0  0
    0.3942    8.5951    1.8835 H   0  0  0  0  0  0  0  0  0  0  0  0
   -1.3805    5.1803   -0.4429 H   0  0  0  0  0  0  0  0  0  0  0  0
    0.6116    5.2293   -1.8873 H   0  0  0  0  0  0  0  0  0  0  0  0
    2.7877    4.4828   -1.0116 H   0  0  0  0  0  0  0  0  0  0  0  0
    0.9722    3.6482    2.7667 H   0  0  0  0  0  0  0  0  0  0  0  0
    1.5632    1.7229    0.6405 H   0  0  0  0  0  0  0  0  0  0  0  0
    1.9528   -0.6966    0.8693 H   0  0  0  0  0  0  0  0  0  0  0  0
    4.0228   -1.5181    1.9173 H   0  0  0  0  0  0  0  0  0  0  0  0
    5.7125    0.0768    2.7292 H   0  0  0  0  0  0  0  0  0  0  0  0
    5.3359    2.4978    2.4940 H   0  0  0  0  0  0  0  0  0  0  0  0
  1  2  1  0  0  0  0
  1 34  1  0  0  0  0
  1 35  1  0  0  0  0
  1 36  1  0  0  0  0
  2  3  1  0  0  0  0
  3  4  1  0  0  0  0
  3 37  1  0  0  0  0
  3 38  1  0  0  0  0
  4 39  1  0  0  0  0
  4 40  1  0  0  0  0
  4  5  1  0  0  0  0
  5 19  1  0  0  0  0
  5  6  1  0  0  0  0
  6  8  1  0  0  0  0
  6 21  1  0  0  0  0
  6  7  1  1  0  0  0
  8 17  2  0  0  0  0
  8  9  1  0  0  0  0
  9 16  2  0  0  0  0
  9 10  1  0  0  0  0
 10 15  2  0  0  0  0
 10 11  1  0  0  0  0
 11 12  2  0  0  0  0
 11 41  1  0  0  0  0
 12 13  1  0  0  0  0
 12 42  1  0  0  0  0
 13 14  2  0  0  0  0
 14 15  1  0  0  0  0
 14 43  1  0  0  0  0
 15 44  1  0  0  0  0
 17 19  1  0  0  0  0
 17 18  1  0  0  0  0
 19 20  2  0  0  0  0
 21 26  2  0  0  0  0
 21 22  1  0  0  0  0
 22 23  2  0  0  0  0
 22 45  1  0  0  0  0
 23 24  1  0  0  0  0
 23 46  1  0  0  0  0
 24 25  2  0  0  0  0
 24 47  1  0  0  0  0
 25 26  1  0  0  0  0
 25 27  1  0  0  0  0
 26 48  1  0  0  0  0
 27 28  1  0  0  0  0
 28 33  2  0  0  0  0
 28 29  1  0  0  0  0
 29 30  2  0  0  0  0
 29 49  1  0  0  0  0
 30 31  1  0  0  0  0
 30 50  1  0  0  0  0
 31 32  2  0  0  0  0
 31 51  1  0  0  0  0
 32 33  1  0  0  0  0
 32 52  1  0  0  0  0
 33 53  1  0  0  0  0
M  CHG  1  18  -1
M  END
$$$$
ZINC59135181
 OpenBabel01252620473D

 39 41  0  0  0  0  0  0  0  0999 V2000
    0.4548    0.3288   -0.9565 C   0  0  0  0  0  0  0  0  0  0  0  0
    1.6078    1.0825   -1.0564 C   0  0  0  0  0  0  0  0  0  0  0  0
    2.2521    1.5189    0.0891 C   0  0  0  0  0  0  0  0  0  0  0  0
    1.7418    1.2009    1.3365 C   0  0  0  0  0  0  0  0  0  0  0  0
    0.5887    0.4478    1.4403 C   0  0  0  0  0  0  0  0  0  0  0  0
   -0.0584    0.0090    0.2931 C   0  0  0  0  0  0  0  0  0  0  0  0
   -1.2290   -0.7557    0.3965 N   0  0  0  0  0  0  0  0  0  0  0  0
   -1.2057   -2.0573    0.0380 C   0  0  0  0  0  0  0  0  0  0  0  0
   -0.1858   -2.5781   -0.3734 O   0  0  0  0  0  0  0  0  0  0  0  0
   -2.4591   -2.8276    0.1623 C   0  0  0  0  0  0  0  0  0  0  0  0
   -2.5227   -4.1681   -0.1831 C   0  0  0  0  0  0  0  0  0  0  0  0
   -3.8181   -4.8377   -0.2768 C   0  0  0  0  0  0  0  0  0  0  0  0
   -4.8763   -4.2320   -0.9736 C   0  0  0  0  0  0  0  0  0  0  0  0
   -6.0840   -4.8627   -1.0575 C   0  0  0  0  0  0  0  0  0  0  0  0
   -6.2684   -6.1034   -0.4538 C   0  0  0  0  0  0  0  0  0  0  0  0
   -5.2236   -6.7096    0.2386 C   0  0  0  0  0  0  0  0  0  0  0  0
   -4.0084   -6.0921    0.3246 C   0  0  0  0  0  0  0  0  0  0  0  0
   -5.5136   -8.5768    1.1434 I   0  0  0  0  0  0  0  0  0  0  0  0
   -7.4711   -6.7242   -0.5402 O   0  0  0  0  0  0  0  0  0  0  0  0
   -8.5001   -6.0472   -1.2646 C   0  0  0  0  0  0  0  0  0  0  0  0
   -9.7547   -6.8821   -1.2538 C   0  0  0  0  0  0  0  0  0  0  0  0
   -9.7665   -7.9572   -0.6790 O   0  0  0  0  0  0  0  0  0  0  0  0
  -10.7578   -6.4824   -1.8199 O   0  0  0  0  0  1  0  0  0  0  0  0
   -3.6375   -2.1075    0.6702 C   0  0  0  0  0  0  0  0  0  0  0  0
   -4.8222   -2.7374    0.8148 O   0  5  0  0  0  0  0  0  0  0  0  0
   -3.5088   -0.8293    0.9820 N   0  0  0  0  0  0  0  0  0  0  0  0
   -2.3519   -0.1837    0.8550 C   0  0  0  0  0  0  0  0  0  0  0  0
   -2.3121    0.9930    1.1678 O   0  0  0  0  0  0  0  0  0  0  0  0
    3.3804    2.2553   -0.0106 F   0  0  0  0  0  0  0  0  0  0  0  0
   -0.0497   -0.0079   -1.8501 H   0  0  0  0  0  0  0  0  0  0  0  0
    2.0073    1.3314   -2.0284 H   0  0  0  0  0  0  0  0  0  0  0  0
    2.2459    1.5418    2.2287 H   0  0  0  0  0  0  0  0  0  0  0  0
    0.1912    0.1997    2.4134 H   0  0  0  0  0  0  0  0  0  0  0  0
   -1.6149   -4.7179   -0.3832 H   0  0  0  0  0  0  0  0  0  0  0  0
   -4.7350   -3.2691   -1.4418 H   0  0  0  0  0  0  0  0  0  0  0  0
   -6.8985   -4.3978   -1.5931 H   0  0  0  0  0  0  0  0  0  0  0  0
   -3.1973   -6.5652    0.8581 H   0  0  0  0  0  0  0  0  0  0  0  0
   -8.7008   -5.0838   -0.7960 H   0  0  0  0  0  0  0  0  0  0  0  0
   -8.1769   -5.8903   -2.2937 H   0  0  0  0  0  0  0  0  0  0  0  0
  1  6  2  0  0  0  0
  1  2  1  0  0  0  0
  1 30  1  0  0  0  0
  2  3  2  0  0  0  0
  2 31  1  0  0  0  0
  3  4  1  0  0  0  0
  3 29  1  0  0  0  0
  4  5  2  0  0  0  0
  4 32  1  0  0  0  0
  5  6  1  0  0  0  0
  5 33  1  0  0  0  0
  6  7  1  0  0  0  0
  7 27  1  0  0  0  0
  7  8  1  0  0  0  0
  8  9  2  0  0  0  0
  8 10  1  0  0  0  0
 10 11  2  0  0  0  0
 10 24  1  0  0  0  0
 11 12  1  0  0  0  0
 11 34  1  0  0  0  0
 12 17  2  0  0  0  0
 12 13  1  0  0  0  0
 13 14  2  0  0  0  0
 13 35  1  0  0  0  0
 14 15  1  0  0  0  0
 14 36  1  0  0  0  0
 15 16  2  0  0  0  0
 15 19  1  0  0  0  0
 16 17  1  0  0  0  0
 16 18  1  0  0  0  0
 17 37  1  0  0  0  0
 19 20  1  0  0  0  0
 20 21  1  0  0  0  0
 20 38  1  0  0  0  0
 20 39  1  0  0  0  0
 21 22  2  0  0  0  0
 21 23  1  0  0  0  0
 24 25  1  0  0  0  0
 24 26  2  0  0  0  0
 26 27  1  0  0  0  0
 27 28  2  0  0  0  0
M  CHG  1  25  -1
M  END
$$$$
ZINC49098702
 OpenBabel01252620473D

 29 29  0  0  1  0  0  0  0  0999 V2000
   -0.2258    1.7392   -0.2732 C   0  0  0  0  0  0  0  0  0  0  0  0
   -0.1964    0.2204   -0.0906 C   0  0  2  0  0  0  0  0  0  0  0  0
   -1.2147   -0.1679   -0.1118 H   0  0  0  0  0  0  0  0  0  0  0  0
    0.4413   -0.1141    1.2332 C   0  0  0  0  0  0  0  0  0  0  0  0
    1.4458   -0.7929    1.2681 O   0  0  0  0  0  0  0  0  0  0  0  0
   -0.1046    0.3411    2.3783 N   0  0  0  0  0  0  0  0  0  0  0  0
    0.5154    0.0159    3.6652 C   0  0  0  0  0  0  0  0  0  0  0  0
    0.5804   -0.3868   -1.1742 N   0  0  0  0  0  0  0  0  0  0  0  0
   -0.1920   -0.9921   -2.5081 S   0  0  0  0  0  0  0  0  0  0  0  0
   -1.0926    0.0152   -2.9479 O   0  0  0  0  0  0  0  0  0  0  0  0
    0.8164   -1.5331   -3.3506 O   0  0  0  0  0  0  0  0  0  0  0  0
   -1.1783   -2.3487   -1.9682 C   0  0  0  0  0  0  0  0  0  0  0  0
   -2.5461   -2.2906   -2.0520 C   0  0  0  0  0  0  0  0  0  0  0  0
   -3.2267   -3.4150   -1.5992 C   0  0  0  0  0  0  0  0  0  0  0  0
   -1.8862   -4.4732   -1.0877 S   0  0  0  0  0  0  0  0  0  0  0  0
   -0.5940   -3.4693   -1.4682 C   0  0  0  0  0  0  0  0  0  0  0  0
    1.2515   -3.8177   -1.2484 Br  0  0  0  0  0  0  0  0  0  0  0  0
   -4.6216   -3.6569   -1.5555 C   0  0  0  0  0  0  0  0  0  0  0  0
   -5.4042   -2.8032   -1.9553 O   0  0  0  0  0  0  0  0  0  0  0  0
   -5.0457   -4.7198   -1.1180 O   0  0  0  0  0  1  0  0  0  0  0  0
    0.7924    2.1275   -0.2521 H   0  0  0  0  0  0  0  0  0  0  0  0
   -0.6871    1.9811   -1.2307 H   0  0  0  0  0  0  0  0  0  0  0  0
   -0.8038    2.1910    0.5330 H   0  0  0  0  0  0  0  0  0  0  0  0
   -0.9079    0.8839    2.3504 H   0  0  0  0  0  0  0  0  0  0  0  0
    0.5364   -1.0661    3.7954 H   0  0  0  0  0  0  0  0  0  0  0  0
    1.5337    0.4042    3.6864 H   0  0  0  0  0  0  0  0  0  0  0  0
   -0.0625    0.4677    4.4714 H   0  0  0  0  0  0  0  0  0  0  0  0
    1.5471   -0.4343   -1.1102 H   0  0  0  0  0  0  0  0  0  0  0  0
   -3.0614   -1.4265   -2.4444 H   0  0  0  0  0  0  0  0  0  0  0  0
  1  2  1  0  0  0  0
  1 21  1  0  0  0  0
  1 22  1  0  0  0  0
  1 23  1  0  0  0  0
  2  3  1  6  0  0  0
  2  4  1  0  0  0  0
  2  8  1  0  0  0  0
  4  5  2  0  0  0  0
  4  6  1  0  0  0  0
  6  7  1  0  0  0  0
  6 24  1  0  0  0  0
  7 25  1  0  0  0  0
  7 26  1  0  0  0  0
  7 27  1  0  0  0  0
  8  9  1  0  0  0  0
  8 28  1  0  0  0  0
  9 10  2  0  0  0  0
  9 11  2  0  0  0  0
  9 12  1  0  0  0  0
 12 16  2  0  0  0  0
 12 13  1  0  0  0  0
 13 14  2  0  0  0  0
 13 29  1  0  0  0  0
 14 15  1  0  0  0  0
 14 18  1  0  0  0  0
 15 16  1  0  0  0  0
 16 17  1  0  0  0  0
 18 19  2  0  0  0  0
 18 20  1  0  0  0  0
M  END
$$$$
ZINC40095146
 OpenBabel01252620473D

 52 55  0  0  1  0  0  0  0  0999 V2000
   -1.2615    2.1708    3.1475 C   0  0  0  0  0  0  0  0  0  0  0  0
   -0.9840    0.7560    2.6352 C   0  0  2  0  0  0  0  0  0  0  0  0
   -0.2899    0.7805    1.7952 H   0  0  0  0  0  0  0  0  0  0  0  0
   -2.3013    0.0492    2.2371 C   0  0  0  0  0  0  0  0  0  0  0  0
   -2.0298   -1.3810    2.6629 C   0  0  0  0  0  0  0  0  0  0  0  0
   -2.6543   -2.5651    2.3595 C   0  0  0  0  0  0  0  0  0  0  0  0
   -2.1756   -3.7634    2.9001 C   0  0  0  0  0  0  0  0  0  0  0  0
   -1.0625   -3.7399    3.7464 C   0  0  0  0  0  0  0  0  0  0  0  0
   -0.4472   -2.5482    4.0462 C   0  0  0  0  0  0  0  0  0  0  0  0
   -0.9256   -1.3507    3.5105 C   0  0  0  0  0  0  0  0  0  0  0  0
   -0.4765   -0.0772    3.6909 O   0  0  0  0  0  0  0  0  0  0  0  0
   -2.8403   -5.0420    2.5803 C   0  0  0  0  0  0  0  0  0  0  0  0
   -3.8658   -5.0474    1.9249 O   0  0  0  0  0  0  0  0  0  0  0  0
   -2.2651   -6.3055    3.0523 C   0  0  0  0  0  0  0  0  0  0  0  0
   -2.8232   -7.5341    2.9508 C   0  0  0  0  0  0  0  0  0  0  0  0
   -1.9136   -8.5319    3.5519 C   0  0  0  0  0  0  0  0  0  0  0  0
   -2.1319   -9.7254    3.6157 O   0  0  0  0  0  0  0  0  0  0  0  0
   -0.8079   -7.9233    4.0181 N   0  0  0  0  0  0  0  0  0  0  0  0
   -0.9321   -6.4876    3.7399 C   0  0  1  0  0  0  0  0  0  0  0  0
   -0.9116   -5.9243    4.6728 H   0  0  0  0  0  0  0  0  0  0  0  0
    0.1841   -6.0335    2.8348 C   0  0  0  0  0  0  0  0  0  0  0  0
    0.4642   -6.4185    1.5658 C   0  0  0  0  0  0  0  0  0  0  0  0
    1.5523   -5.8611    0.9209 C   0  0  0  0  0  0  0  0  0  0  0  0
    2.3071   -4.9458    1.5766 C   0  0  0  0  0  0  0  0  0  0  0  0
    1.4758   -4.8430    3.1532 S   0  0  0  0  0  0  0  0  0  0  0  0
    0.3224   -8.5784    4.6810 C   0  0  0  0  0  0  0  0  0  0  0  0
    0.0851   -8.5990    6.1923 C   0  0  0  0  0  0  0  0  0  0  0  0
   -1.1005   -9.3439    6.4782 O   0  0  0  0  0  0  0  0  0  0  0  0
   -1.4737   -9.3354    7.8576 C   0  0  0  0  0  0  0  0  0  0  0  0
   -2.6794  -10.2541    8.0654 C   0  0  0  0  0  0  0  0  0  0  0  0
   -2.2949  -11.6080    7.8179 O   0  0  0  0  0  0  0  0  0  0  0  0
   -4.0234   -7.8060    2.3883 O   0  5  0  0  0  0  0  0  0  0  0  0
   -0.3262    2.6329    3.4632 H   0  0  0  0  0  0  0  0  0  0  0  0
   -1.7093    2.7644    2.3505 H   0  0  0  0  0  0  0  0  0  0  0  0
   -1.9469    2.1228    3.9938 H   0  0  0  0  0  0  0  0  0  0  0  0
   -3.1473    0.4648    2.7846 H   0  0  0  0  0  0  0  0  0  0  0  0
   -2.4668    0.1108    1.1616 H   0  0  0  0  0  0  0  0  0  0  0  0
   -3.5135   -2.5717    1.7051 H   0  0  0  0  0  0  0  0  0  0  0  0
   -0.6855   -4.6610    4.1658 H   0  0  0  0  0  0  0  0  0  0  0  0
    0.4120   -2.5378    4.7005 H   0  0  0  0  0  0  0  0  0  0  0  0
   -0.1533   -7.1502    1.0661 H   0  0  0  0  0  0  0  0  0  0  0  0
    1.7977   -6.1507   -0.0902 H   0  0  0  0  0  0  0  0  0  0  0  0
    3.1819   -4.4138    1.2330 H   0  0  0  0  0  0  0  0  0  0  0  0
    0.4161   -9.6005    4.3139 H   0  0  0  0  0  0  0  0  0  0  0  0
    1.2386   -8.0292    4.4645 H   0  0  0  0  0  0  0  0  0  0  0  0
    0.9362   -9.0666    6.6874 H   0  0  0  0  0  0  0  0  0  0  0  0
   -0.0308   -7.5780    6.5559 H   0  0  0  0  0  0  0  0  0  0  0  0
   -0.6386   -9.6896    8.4621 H   0  0  0  0  0  0  0  0  0  0  0  0
   -1.7344   -8.3204    8.1573 H   0  0  0  0  0  0  0  0  0  0  0  0
   -3.0359  -10.1594    9.0910 H   0  0  0  0  0  0  0  0  0  0  0  0
   -3.4751   -9.9707    7.3765 H   0  0  0  0  0  0  0  0  0  0  0  0
   -3.0115  -12.2473    7.9311 H   0  0  0  0  0  0  0  0  0  0  0  0
  1  2  1  0  0  0  0
  1 33  1  0  0  0  0
  1 34  1  0  0  0  0
  1 35  1  0  0  0  0
  2  3  1  6  0  0  0
  2 11  1  0  0  0  0
  2  4  1  0  0  0  0
  4  5  1  0  0  0  0
  4 36  1  0  0  0  0
  4 37  1  0  0  0  0
  5 10  2  0  0  0  0
  5  6  1  0  0  0  0
  6  7  2  0  0  0  0
  6 38  1  0  0  0  0
  7  8  1  0  0  0  0
  7 12  1  0  0  0  0
  8  9  2  0  0  0  0
  8 39  1  0  0  0  0
  9 10  1  0  0  0  0
  9 40  1  0  0  0  0
 10 11  1  0  0  0  0
 12 13  2  0  0  0  0
 12 14  1  0  0  0  0
 14 19  1  0  0  0  0
 14 15  2  0  0  0  0
 15 16  1  0  0  0  0
 15 32  1  0  0  0  0
 16 17  2  0  0  0  0
 16 18  1  0  0  0  0
 18 19  1  0  0  0  0
 18 26  1  0  0  0  0
 19 20  1  1  0  0  0
 19 21  1  0  0  0  0
 21 25  1  0  0  0  0
 21 22  2  0  0  0  0
 22 23  1  0  0  0  0
 22 41  1  0  0  0  0
 23 24  2  0  0  0  0
 23 42  1  0  0  0  0
 24 25  1  0  0  0  0
 24 43  1  0  0  0  0
 26 27  1  0  0  0  0
 26 44  1  0  0  0  0
 26 45  1  0  0  0  0
 27 28  1  0  0  0  0
 27 46  1  0  0  0  0
 27 47  1  0  0  0  0
 28 29  1  0  0  0  0
 29 30  1  0  0  0  0
 29 48  1  0  0  0  0
 29 49  1  0  0  0  0
 30 31  1  0  0  0  0
 30 50  1  0  0  0  0
 30 51  1  0  0  0  0
 31 52  1  0  0  0  0
M  CHG  1  32  -1
M  END
$$$$
ZINC09292042
 OpenBabel01252620473D

 65 69  0  0  1  0  0  0  0  0999 V2000
    4.1614   10.6990  -11.7988 C   0  0  0  0  0  0  0  0  0  0  0  0
    4.1239    9.1716  -11.7172 C   0  0  2  0  0  0  0  0  0  0  0  0
    4.3436    8.7877  -12.7244 H   0  0  0  0  0  0  0  0  0  0  0  0
    2.7891    8.6885  -11.1024 C   0  0  0  0  0  0  0  0  0  0  0  0
    3.1446    8.5751   -9.6322 C   0  0  0  0  0  0  0  0  0  0  0  0
    2.3697    8.4740   -8.5044 C   0  0  0  0  0  0  0  0  0  0  0  0
    2.9783    8.4009   -7.2447 C   0  0  0  0  0  0  0  0  0  0  0  0
    4.3752    8.4373   -7.1526 C   0  0  0  0  0  0  0  0  0  0  0  0
    5.1401    8.5297   -8.2900 C   0  0  0  0  0  0  0  0  0  0  0  0
    4.5345    8.5993   -9.5467 C   0  0  0  0  0  0  0  0  0  0  0  0
    5.1005    8.6877  -10.7801 O   0  0  0  0  0  0  0  0  0  0  0  0
    2.1572    8.2930   -6.0291 C   0  0  0  0  0  0  0  0  0  0  0  0
    2.4188    7.3000   -5.1047 C   0  0  0  0  0  0  0  0  0  0  0  0
    1.7742    7.1298   -3.7485 C   0  0  2  0  0  0  0  0  0  0  0  0
    1.9449    8.0014   -3.0995 H   0  0  0  0  0  0  0  0  0  0  0  0
    2.3773    5.9384   -3.1439 N   0  0  0  0  0  0  0  0  0  0  0  0
    3.2824    5.4273   -3.9954 C   0  0  0  0  0  0  0  0  0  0  0  0
    3.9567    4.4401   -3.7840 O   0  0  0  0  0  0  0  0  0  0  0  0
    3.3354    6.2466   -5.2363 C   0  0  0  0  0  0  0  0  0  0  0  0
    4.0539    6.0408   -6.1979 O   0  5  0  0  0  0  0  0  0  0  0  0
    2.0508    5.3963   -1.8227 C   0  0  0  0  0  0  0  0  0  0  0  0
    0.9084    4.3870   -1.9536 C   0  0  0  0  0  0  0  0  0  0  0  0
    0.5673    3.8209   -0.5737 C   0  0  0  0  0  0  0  0  0  0  0  0
   -0.5266    2.8545   -0.6991 N   0  0  0  0  0  0  0  0  0  0  0  0
   -0.4007    1.5094   -0.9196 C   0  0  0  0  0  0  0  0  0  0  0  0
   -1.6481    1.0039   -0.9664 C   0  0  0  0  0  0  0  0  0  0  0  0
   -2.5121    2.0136   -0.7845 N   0  0  0  0  0  0  0  0  0  0  0  0
   -1.8473    3.1243   -0.6188 C   0  0  0  0  0  0  0  0  0  0  0  0
    0.2881    6.9338   -3.9032 C   0  0  0  0  0  0  0  0  0  0  0  0
   -0.2085    5.7096   -4.3119 C   0  0  0  0  0  0  0  0  0  0  0  0
   -1.5717    5.5250   -4.4494 C   0  0  0  0  0  0  0  0  0  0  0  0
   -2.4408    6.5672   -4.1895 C   0  0  0  0  0  0  0  0  0  0  0  0
   -1.9448    7.7978   -3.7849 C   0  0  0  0  0  0  0  0  0  0  0  0
   -0.5766    7.9788   -3.6422 C   0  0  0  0  0  0  0  0  0  0  0  0
   -2.7976    8.8245   -3.5291 O   0  0  0  0  0  0  0  0  0  0  0  0
   -4.1930    8.5661   -3.6969 C   0  0  0  0  0  0  0  0  0  0  0  0
   -4.9772    9.8109   -3.3707 C   0  0  0  0  0  0  0  0  0  0  0  0
   -5.9521   10.1957   -4.1567 C   0  0  0  0  0  0  0  0  0  0  0  0
    1.1478    9.1642   -5.8166 O   0  0  0  0  0  0  0  0  0  0  0  0
    3.4073   11.0462  -12.5204 H   0  0  0  0  0  0  0  0  0  0  0  0
    5.1598   11.0243  -12.1267 H   0  0  0  0  0  0  0  0  0  0  0  0
    3.9441   11.1245  -10.8080 H   0  0  0  0  0  0  0  0  0  0  0  0
    2.0036    9.4327  -11.3005 H   0  0  0  0  0  0  0  0  0  0  0  0
    2.5047    7.7263  -11.5533 H   0  0  0  0  0  0  0  0  0  0  0  0
    1.2931    8.4513   -8.5875 H   0  0  0  0  0  0  0  0  0  0  0  0
    4.8526    8.3886   -6.1850 H   0  0  0  0  0  0  0  0  0  0  0  0
    6.2170    8.5531   -8.2116 H   0  0  0  0  0  0  0  0  0  0  0  0
    2.9358    4.8959   -1.4028 H   0  0  0  0  0  0  0  0  0  0  0  0
    1.7420    6.2153   -1.1564 H   0  0  0  0  0  0  0  0  0  0  0  0
    0.0234    4.8874   -2.3736 H   0  0  0  0  0  0  0  0  0  0  0  0
    1.2172    3.5680   -2.6198 H   0  0  0  0  0  0  0  0  0  0  0  0
    1.4523    3.3205   -0.1537 H   0  0  0  0  0  0  0  0  0  0  0  0
    0.2585    4.6399    0.0925 H   0  0  0  0  0  0  0  0  0  0  0  0
    0.5216    0.9593   -1.0338 H   0  0  0  0  0  0  0  0  0  0  0  0
   -1.9073   -0.0322   -1.1269 H   0  0  0  0  0  0  0  0  0  0  0  0
   -2.2816    4.0985   -0.4495 H   0  0  0  0  0  0  0  0  0  0  0  0
    0.4695    4.8951   -4.5201 H   0  0  0  0  0  0  0  0  0  0  0  0
   -1.9573    4.5668   -4.7647 H   0  0  0  0  0  0  0  0  0  0  0  0
   -3.5053    6.4238   -4.3016 H   0  0  0  0  0  0  0  0  0  0  0  0
   -0.1880    8.9359   -3.3269 H   0  0  0  0  0  0  0  0  0  0  0  0
   -4.3887    8.2719   -4.7386 H   0  0  0  0  0  0  0  0  0  0  0  0
   -4.4990    7.7527   -3.0225 H   0  0  0  0  0  0  0  0  0  0  0  0
   -4.7311   10.3964   -2.4726 H   0  0  0  0  0  0  0  0  0  0  0  0
   -6.5245   11.1043   -3.9186 H   0  0  0  0  0  0  0  0  0  0  0  0
   -6.1982    9.6102   -5.0548 H   0  0  0  0  0  0  0  0  0  0  0  0
  1  2  1  0  0  0  0
  1 40  1  0  0  0  0
  1 41  1  0  0  0  0
  1 42  1  0  0  0  0
  2  3  1  6  0  0  0
  2 11  1  0  0  0  0
  2  4  1  0  0  0  0
  4  5  1  0  0  0  0
  4 43  1  0  0  0  0
  4 44  1  0  0  0  0
  5 10  2  0  0  0  0
  5  6  1  0  0  0  0
  6  7  2  0  0  0  0
  6 45  1  0  0  0  0
  7  8  1  0  0  0  0
  7 12  1  0  0  0  0
  8  9  2  0  0  0  0
  8 46  1  0  0  0  0
  9 10  1  0  0  0  0
  9 47  1  0  0  0  0
 10 11  1  0  0  0  0
 12 13  1  0  0  0  0
 12 39  2  0  0  0  0
 13 19  2  0  0  0  0
 13 14  1  0  0  0  0
 14 15  1  1  0  0  0
 14 16  1  0  0  0  0
 14 29  1  0  0  0  0
 16 17  1  0  0  0  0
 16 21  1  0  0  0  0
 17 18  2  0  0  0  0
 17 19  1  0  0  0  0
 19 20  1  0  0  0  0
 21 22  1  0  0  0  0
 21 48  1  0  0  0  0
 21 49  1  0  0  0  0
 22 23  1  0  0  0  0
 22 50  1  0  0  0  0
 22 51  1  0  0  0  0
 23 24  1  0  0  0  0
 23 52  1  0  0  0  0
 23 53  1  0  0  0  0
 24 28  1  0  0  0  0
 24 25  1  0  0  0  0
 25 26  2  0  0  0  0
 25 54  1  0  0  0  0
 26 27  1  0  0  0  0
 26 55  1  0  0  0  0
 27 28  2  0  0  0  0
 28 56  1  0  0  0  0
 29 34  2  0  0  0  0
 29 30  1  0  0  0  0
 30 31  2  0  0  0  0
 30 57  1  0  0  0  0
 31 32  1  0  0  0  0
 31 58  1  0  0  0  0
 32 33  2  0  0  0  0
 32 59  1  0  0  0  0
 33 34  1  0  0  0  0
 33 35  1  0  0  0  0
 34 60  1  0  0  0  0
 35 36  1  0  0  0  0
 36 37  1  0  0  0  0
 36 61  1  0  0  0  0
 36 62  1  0  0  0  0
 37 38  2  0  0  0  0
 37 63  1  0  0  0  0
 38 64  1  0  0  0  0
 38 65  1  0  0  0  0
M  CHG  1  20  -1
M  END
$$$$
ZINC40071951
 OpenBabel01252620473D

 63 67  0  0  1  0  0  0  0  0999 V2000
   -0.8215    1.1205   -0.5004 C   0  0  0  0  0  0  0  0  0  0  0  0
   -0.7020   -0.3981   -0.3576 C   0  0  0  0  0  0  0  0  0  0  0  0
    0.2250   -0.7288    0.8139 C   0  0  0  0  0  0  0  0  0  0  0  0
   -2.0859   -0.9964   -0.0975 C   0  0  2  0  0  0  0  0  0  0  0  0
   -1.9897   -2.0655    0.0923 H   0  0  0  0  0  0  0  0  0  0  0  0
   -2.9626   -0.7772   -1.3035 C   0  0  0  0  0  0  0  0  0  0  0  0
   -3.6231   -1.7584   -1.9755 N   0  0  0  0  0  0  0  0  0  0  0  0
   -3.6130   -2.7055   -1.7663 H   0  0  0  0  0  0  0  0  0  0  0  0
   -4.3107   -1.1562   -3.0101 C   0  0  0  0  0  0  0  0  0  0  0  0
   -5.1443   -1.6225   -4.0176 C   0  0  0  0  0  0  0  0  0  0  0  0
   -5.6877   -0.7336   -4.9204 C   0  0  0  0  0  0  0  0  0  0  0  0
   -5.4064    0.6223   -4.8285 C   0  0  0  0  0  0  0  0  0  0  0  0
   -4.5884    1.0991   -3.8438 C   0  0  0  0  0  0  0  0  0  0  0  0
   -4.0267    0.2167   -2.9173 C   0  0  0  0  0  0  0  0  0  0  0  0
   -3.2026    0.3788   -1.8503 N   0  0  0  0  0  0  0  0  0  0  0  0
   -2.6880   -0.3456    1.0687 N   0  0  0  0  0  0  0  0  0  0  0  0
   -2.4051   -0.7900    2.3093 C   0  0  0  0  0  0  0  0  0  0  0  0
   -1.6520   -1.7287    2.4601 O   0  0  0  0  0  0  0  0  0  0  0  0
   -3.0244   -0.1206    3.5090 C   0  0  0  0  0  0  0  0  0  0  0  0
   -2.5421   -0.8132    4.7851 C   0  0  0  0  0  0  0  0  0  0  0  0
   -3.1651   -0.1797    5.9499 N   0  0  0  0  0  0  0  0  0  0  0  0
   -4.3963   -0.5722    6.3458 C   0  0  0  0  0  0  0  0  0  0  0  0
   -4.9876   -1.4315    5.7209 O   0  0  0  0  0  0  0  0  0  0  0  0
   -5.0256    0.0365    7.5323 C   0  0  0  0  0  0  0  0  0  0  0  0
   -6.3899   -0.0703    7.7840 C   0  0  0  0  0  0  0  0  0  0  0  0
   -6.9182    0.5089    8.9201 C   0  0  0  0  0  0  0  0  0  0  0  0
   -6.1051    1.1922    9.8099 C   0  0  0  0  0  0  0  0  0  0  0  0
   -4.7471    1.3123    9.5695 C   0  0  0  0  0  0  0  0  0  0  0  0
   -4.2081    0.7450    8.4357 C   0  0  0  0  0  0  0  0  0  0  0  0
   -2.8594    0.8470    8.0870 N   0  0  0  0  0  0  0  0  0  0  0  0
   -2.4461    0.8660    6.6751 C   0  0  1  0  0  0  0  0  0  0  0  0
   -0.9337    0.6261    6.6508 C   0  0  0  0  0  0  0  0  0  0  0  0
   -0.5240    0.6895    8.1344 C   0  0  0  0  0  0  0  0  0  0  0  0
   -1.8026    0.9096    8.8998 C   0  0  0  0  0  0  0  0  0  0  0  0
   -1.8626    1.1050   10.0952 O   0  0  0  0  0  0  0  0  0  0  0  0
   -2.7657    2.2324    6.0655 C   0  0  0  0  0  0  0  0  0  0  0  0
    0.1644    1.5468   -0.6856 H   0  0  0  0  0  0  0  0  0  0  0  0
   -1.4819    1.3561   -1.3350 H   0  0  0  0  0  0  0  0  0  0  0  0
   -1.2323    1.5406    0.4177 H   0  0  0  0  0  0  0  0  0  0  0  0
   -0.2912   -0.8182   -1.2757 H   0  0  0  0  0  0  0  0  0  0  0  0
    0.3101   -1.8107    0.9157 H   0  0  0  0  0  0  0  0  0  0  0  0
    1.2109   -0.3025    0.6287 H   0  0  0  0  0  0  0  0  0  0  0  0
   -0.1858   -0.3087    1.7320 H   0  0  0  0  0  0  0  0  0  0  0  0
   -5.3658   -2.6768   -4.0940 H   0  0  0  0  0  0  0  0  0  0  0  0
   -6.3363   -1.0948   -5.7047 H   0  0  0  0  0  0  0  0  0  0  0  0
   -5.8384    1.3074   -5.5429 H   0  0  0  0  0  0  0  0  0  0  0  0
   -4.3760    2.1562   -3.7818 H   0  0  0  0  0  0  0  0  0  0  0  0
   -3.2903    0.4051    0.9481 H   0  0  0  0  0  0  0  0  0  0  0  0
   -2.7303    0.9287    3.5317 H   0  0  0  0  0  0  0  0  0  0  0  0
   -4.1102   -0.1922    3.4448 H   0  0  0  0  0  0  0  0  0  0  0  0
   -2.8187   -1.8670    4.7533 H   0  0  0  0  0  0  0  0  0  0  0  0
   -1.4583   -0.7242    4.8594 H   0  0  0  0  0  0  0  0  0  0  0  0
   -7.0304   -0.6017    7.0957 H   0  0  0  0  0  0  0  0  0  0  0  0
   -7.9770    0.4288    9.1174 H   0  0  0  0  0  0  0  0  0  0  0  0
   -6.5338    1.6346   10.6969 H   0  0  0  0  0  0  0  0  0  0  0  0
   -4.1158    1.8459   10.2647 H   0  0  0  0  0  0  0  0  0  0  0  0
   -0.7089   -0.3555    6.2337 H   0  0  0  0  0  0  0  0  0  0  0  0
   -0.4316    1.4085    6.0818 H   0  0  0  0  0  0  0  0  0  0  0  0
   -0.0527   -0.2463    8.4348 H   0  0  0  0  0  0  0  0  0  0  0  0
    0.1562    1.5247    8.3015 H   0  0  0  0  0  0  0  0  0  0  0  0
   -3.8376    2.4186    6.1329 H   0  0  0  0  0  0  0  0  0  0  0  0
   -2.2272    3.0081    6.6098 H   0  0  0  0  0  0  0  0  0  0  0  0
   -2.4601    2.2439    5.0192 H   0  0  0  0  0  0  0  0  0  0  0  0
  1  2  1  0  0  0  0
  1 37  1  0  0  0  0
  1 38  1  0  0  0  0
  1 39  1  0  0  0  0
  2  3  1  0  0  0  0
  2  4  1  0  0  0  0
  2 40  1  0  0  0  0
  3 41  1  0  0  0  0
  3 42  1  0  0  0  0
  3 43  1  0  0  0  0
  4  5  1  1  0  0  0
  4  6  1  0  0  0  0
  4 16  1  0  0  0  0
  6 15  2  0  0  0  0
  6  7  1  0  0  0  0
  7  8  1  0  0  0  0
  7  9  1  0  0  0  0
  9 14  2  0  0  0  0
  9 10  1  0  0  0  0
 10 11  2  0  0  0  0
 10 44  1  0  0  0  0
 11 12  1  0  0  0  0
 11 45  1  0  0  0  0
 12 13  2  0  0  0  0
 12 46  1  0  0  0  0
 13 14  1  0  0  0  0
 13 47  1  0  0  0  0
 14 15  1  0  0  0  0
 16 17  1  0  0  0  0
 16 48  1  0  0  0  0
 17 18  2  0  0  0  0
 17 19  1  0  0  0  0
 19 20  1  0  0  0  0
 19 49  1  0  0  0  0
 19 50  1  0  0  0  0
 20 21  1  0  0  0  0
 20 51  1  0  0  0  0
 20 52  1  0  0  0  0
 21 31  1  0  0  0  0
 21 22  1  0  0  0  0
 22 23  2  0  0  0  0
 22 24  1  0  0  0  0
 24 29  2  0  0  0  0
 24 25  1  0  0  0  0
 25 26  2  0  0  0  0
 25 53  1  0  0  0  0
 26 27  1  0  0  0  0
 26 54  1  0  0  0  0
 27 28  2  0  0  0  0
 27 55  1  0  0  0  0
 28 29  1  0  0  0  0
 28 56  1  0  0  0  0
 29 30  1  0  0  0  0
 30 34  1  0  0  0  0
 30 31  1  0  0  0  0
 31 32  1  0  0  0  0
 31 36  1  6  0  0  0
 32 33  1  0  0  0  0
 32 57  1  0  0  0  0
 32 58  1  0  0  0  0
 33 34  1  0  0  0  0
 33 59  1  0  0  0  0
 33 60  1  0  0  0  0
 34 35  2  0  0  0  0
 36 61  1  0  0  0  0
 36 62  1  0  0  0  0
 36 63  1  0  0  0  0
M  END
$$$$
ZINC16971906
 OpenBabel01252620473D

 51 54  0  0  1  0  0  0  0  0999 V2000
   -5.6001   -1.4204   -1.1509 C   0  0  0  0  0  0  0  0  0  0  0  0
   -4.4635   -0.6574   -0.7408 O   0  0  0  0  0  0  0  0  0  0  0  0
   -4.5907    0.6963   -0.7557 C   0  0  0  0  0  0  0  0  0  0  0  0
   -5.7833    1.2756   -1.1559 C   0  0  0  0  0  0  0  0  0  0  0  0
   -5.9119    2.6518   -1.1704 C   0  0  0  0  0  0  0  0  0  0  0  0
   -4.8516    3.4505   -0.7860 C   0  0  0  0  0  0  0  0  0  0  0  0
   -3.6566    2.8788   -0.3857 C   0  0  0  0  0  0  0  0  0  0  0  0
   -3.5208    1.5013   -0.3679 C   0  0  0  0  0  0  0  0  0  0  0  0
   -2.3583    0.9238    0.0222 O   0  0  0  0  0  0  0  0  0  0  0  0
   -1.2150    1.6316    0.0167 C   0  0  0  0  0  0  0  0  0  0  0  0
   -1.2227    2.9911    0.0270 C   0  0  0  0  0  0  0  0  0  0  0  0
    0.0023    3.6849    0.0181 C   0  0  0  0  0  0  0  0  0  0  0  0
    0.0165    4.9037    0.0213 O   0  0  0  0  0  0  0  0  0  0  0  0
    1.1588    2.9938    0.0055 N   0  0  0  0  0  0  0  0  0  0  0  0
    1.1475    1.6483   -0.0000 C   0  0  0  0  0  0  0  0  0  0  0  0
    2.2005    1.0406   -0.0115 O   0  5  0  0  0  0  0  0  0  0  0  0
   -0.0111    0.9658    0.0074 N   0  0  0  0  0  0  0  0  0  0  0  0
    2.4360    3.7114   -0.0027 C   0  0  0  0  0  0  0  0  0  0  0  0
    2.8615    3.9634   -1.4263 C   0  0  0  0  0  0  0  0  0  0  0  0
    3.1280    5.1828   -1.8241 C   0  0  0  0  0  0  0  0  0  0  0  0
   -2.5127    3.7631    0.0427 C   0  0  2  0  0  0  0  0  0  0  0  0
   -2.4354    4.6049   -0.6611 H   0  0  0  0  0  0  0  0  0  0  0  0
   -2.7628    4.2875    1.4332 C   0  0  0  0  0  0  0  0  0  0  0  0
   -2.8883    3.4011    2.5176 C   0  0  0  0  0  0  0  0  0  0  0  0
   -2.7952    2.1987    2.3412 O   0  0  0  0  0  0  0  0  0  0  0  0
   -3.1119    3.8903    3.7534 N   0  0  0  0  0  0  0  0  0  0  0  0
   -3.2100    3.1963    4.6012 H   0  0  0  0  0  0  0  0  0  0  0  0
   -3.2152    5.2167    3.9543 C   0  0  0  0  0  0  0  0  0  0  0  0
   -3.4166    5.6387    5.0766 O   0  0  0  0  0  0  0  0  0  0  0  0
   -3.0984    6.0832    2.9314 N   0  0  0  0  0  0  0  0  0  0  0  0
   -2.8650    5.6282    1.6583 C   0  0  0  0  0  0  0  0  0  0  0  0
   -2.7424    6.5009    0.6357 O   0  5  0  0  0  0  0  0  0  0  0  0
   -3.2154    7.5222    3.1798 C   0  0  0  0  0  0  0  0  0  0  0  0
   -1.8544    8.0909    3.4886 C   0  0  0  0  0  0  0  0  0  0  0  0
   -1.3904    9.0963    2.7887 C   0  0  0  0  0  0  0  0  0  0  0  0
   -5.3625   -2.4928   -1.0917 H   0  0  0  0  0  0  0  0  0  0  0  0
   -5.8624   -1.1596   -2.1868 H   0  0  0  0  0  0  0  0  0  0  0  0
   -6.4502   -1.1961   -0.4898 H   0  0  0  0  0  0  0  0  0  0  0  0
   -6.6124    0.6523   -1.4568 H   0  0  0  0  0  0  0  0  0  0  0  0
   -6.8421    3.1034   -1.4821 H   0  0  0  0  0  0  0  0  0  0  0  0
   -4.9557    4.5253   -0.7988 H   0  0  0  0  0  0  0  0  0  0  0  0
    2.3203    4.6718    0.5209 H   0  0  0  0  0  0  0  0  0  0  0  0
    3.2001    3.1059    0.5067 H   0  0  0  0  0  0  0  0  0  0  0  0
    2.9483    3.1235   -2.1314 H   0  0  0  0  0  0  0  0  0  0  0  0
    3.4386    5.3668   -2.8632 H   0  0  0  0  0  0  0  0  0  0  0  0
    3.0412    6.0227   -1.1190 H   0  0  0  0  0  0  0  0  0  0  0  0
   -3.8868    7.6934    4.0342 H   0  0  0  0  0  0  0  0  0  0  0  0
   -3.6253    8.0164    2.2866 H   0  0  0  0  0  0  0  0  0  0  0  0
   -1.2506    7.6617    4.3018 H   0  0  0  0  0  0  0  0  0  0  0  0
   -0.3970    9.5114    3.0141 H   0  0  0  0  0  0  0  0  0  0  0  0
   -1.9942    9.5255    1.9755 H   0  0  0  0  0  0  0  0  0  0  0  0
  1  2  1  0  0  0  0
  1 36  1  0  0  0  0
  1 37  1  0  0  0  0
  1 38  1  0  0  0  0
  2  3  1  0  0  0  0
  3  8  2  0  0  0  0
  3  4  1  0  0  0  0
  4  5  2  0  0  0  0
  4 39  1  0  0  0  0
  5  6  1  0  0  0  0
  5 40  1  0  0  0  0
  6  7  2  0  0  0  0
  6 41  1  0  0  0  0
  7 21  1  0  0  0  0
  7  8  1  0  0  0  0
  8  9  1  0  0  0  0
  9 10  1  0  0  0  0
 10 17  1  0  0  0  0
 10 11  2  0  0  0  0
 11 12  1  0  0  0  0
 11 21  1  0  0  0  0
 12 13  2  0  0  0  0
 12 14  1  0  0  0  0
 14 15  1  0  0  0  0
 14 18  1  0  0  0  0
 15 16  1  0  0  0  0
 15 17  2  0  0  0  0
 18 19  1  0  0  0  0
 18 42  1  0  0  0  0
 18 43  1  0  0  0  0
 19 20  2  0  0  0  0
 19 44  1  0  0  0  0
 20 45  1  0  0  0  0
 20 46  1  0  0  0  0
 21 22  1  6  0  0  0
 21 23  1  0  0  0  0
 23 24  1  0  0  0  0
 23 31  2  0  0  0  0
 24 25  2  0  0  0  0
 24 26  1  0  0  0  0
 26 28  1  0  0  0  0
 26 27  1  0  0  0  0
 28 30  1  0  0  0  0
 28 29  2  0  0  0  0
 30 31  1  0  0  0  0
 30 33  1  0  0  0  0
 31 32  1  0  0  0  0
 33 34  1  0  0  0  0
 33 47  1  0  0  0  0
 33 48  1  0  0  0  0
 34 35  2  0  0  0  0
 34 49  1  0  0  0  0
 35 50  1  0  0  0  0
 35 51  1  0  0  0  0
M  CHG  2  16  -1  32  -1
M  END
$$$$
ZINC40376205
 OpenBabel01252620473D

 54 56  0  0  1  0  0  0  0  0999 V2000
   -2.9857   -4.1964   -4.8279 C   0  0  0  0  0  0  0  0  0  0  0  0
   -3.5872   -3.4904   -3.6401 C   0  0  0  0  0  0  0  0  0  0  0  0
   -4.5552   -2.5201   -3.8312 C   0  0  0  0  0  0  0  0  0  0  0  0
   -5.1127   -1.8671   -2.7465 C   0  0  0  0  0  0  0  0  0  0  0  0
   -4.7059   -2.1796   -1.4656 C   0  0  0  0  0  0  0  0  0  0  0  0
   -3.7299   -3.1573   -1.2657 C   0  0  0  0  0  0  0  0  0  0  0  0
   -3.1758   -3.8168   -2.3647 C   0  0  0  0  0  0  0  0  0  0  0  0
   -3.3212   -3.4720    0.0033 N   0  0  0  0  0  0  0  0  0  0  0  0
   -2.7918   -2.5482    0.7702 C   0  0  0  0  0  0  0  0  0  0  0  0
   -2.5359   -1.2991    0.2628 N   0  0  0  0  0  0  0  0  0  0  0  0
   -2.4933   -2.8319    2.0834 N   0  0  0  0  0  0  0  0  0  0  0  0
   -2.8259   -4.0636    2.6178 C   0  0  0  0  0  0  0  0  0  0  0  0
   -2.6440   -4.3799    3.8693 N   0  0  0  0  0  0  0  0  0  0  0  0
   -3.1262   -5.7641    4.0223 C   0  0  2  0  0  0  0  0  0  0  0  0
   -2.3154   -6.4211    4.3369 H   0  0  0  0  0  0  0  0  0  0  0  0
   -3.5966   -6.1254    2.6269 C   0  0  0  0  0  0  0  0  0  0  0  0
   -4.1313   -7.2921    2.2246 O   0  5  0  0  0  0  0  0  0  0  0  0
   -3.3790   -5.0647    1.9001 N   0  0  0  0  0  0  0  0  0  0  0  0
   -4.2853   -5.8248    5.0191 C   0  0  0  0  0  0  0  0  0  0  0  0
   -3.7835   -5.4708    6.3953 C   0  0  0  0  0  0  0  0  0  0  0  0
   -2.6138   -5.1968    6.5624 O   0  0  0  0  0  0  0  0  0  0  0  0
   -4.6344   -5.4585    7.4404 N   0  0  0  0  0  0  0  0  0  0  0  0
   -4.1958   -5.0174    8.6958 C   0  0  0  0  0  0  0  0  0  0  0  0
   -3.0387   -4.2597    8.8007 C   0  0  0  0  0  0  0  0  0  0  0  0
   -2.6072   -3.8247   10.0441 C   0  0  0  0  0  0  0  0  0  0  0  0
   -3.3314   -4.1467   11.1826 C   0  0  0  0  0  0  0  0  0  0  0  0
   -4.4846   -4.9021   11.0807 C   0  0  0  0  0  0  0  0  0  0  0  0
   -4.9238   -5.3341    9.8401 C   0  0  0  0  0  0  0  0  0  0  0  0
   -6.0622   -6.0724    9.7401 O   0  0  0  0  0  0  0  0  0  0  0  0
   -6.7580   -6.3596   10.9547 C   0  0  0  0  0  0  0  0  0  0  0  0
   -1.4727   -3.0823   10.1480 O   0  0  0  0  0  0  0  0  0  0  0  0
   -1.0865   -2.6678   11.4599 C   0  0  0  0  0  0  0  0  0  0  0  0
   -3.5754   -5.0831   -5.0605 H   0  0  0  0  0  0  0  0  0  0  0  0
   -2.9840   -3.5254   -5.6869 H   0  0  0  0  0  0  0  0  0  0  0  0
   -1.9625   -4.4914   -4.5953 H   0  0  0  0  0  0  0  0  0  0  0  0
   -4.8767   -2.2712   -4.8318 H   0  0  0  0  0  0  0  0  0  0  0  0
   -5.8677   -1.1109   -2.9026 H   0  0  0  0  0  0  0  0  0  0  0  0
   -5.1414   -1.6685   -0.6197 H   0  0  0  0  0  0  0  0  0  0  0  0
   -2.4235   -4.5774   -2.2167 H   0  0  0  0  0  0  0  0  0  0  0  0
   -2.2930   -0.5737    0.8592 H   0  0  0  0  0  0  0  0  0  0  0  0
   -2.0496   -2.1681    2.6343 H   0  0  0  0  0  0  0  0  0  0  0  0
   -5.0584   -5.1166    4.7209 H   0  0  0  0  0  0  0  0  0  0  0  0
   -4.7010   -6.8323    5.0320 H   0  0  0  0  0  0  0  0  0  0  0  0
   -5.5505   -5.7551    7.3234 H   0  0  0  0  0  0  0  0  0  0  0  0
   -2.4744   -4.0092    7.9146 H   0  0  0  0  0  0  0  0  0  0  0  0
   -2.9934   -3.8068   12.1505 H   0  0  0  0  0  0  0  0  0  0  0  0
   -5.0461   -5.1519   11.9688 H   0  0  0  0  0  0  0  0  0  0  0  0
   -7.6450   -6.9533   10.7337 H   0  0  0  0  0  0  0  0  0  0  0  0
   -6.1044   -6.9184   11.6245 H   0  0  0  0  0  0  0  0  0  0  0  0
   -7.0554   -5.4261   11.4325 H   0  0  0  0  0  0  0  0  0  0  0  0
   -1.8772   -2.0569   11.8955 H   0  0  0  0  0  0  0  0  0  0  0  0
   -0.9201   -3.5457   12.0841 H   0  0  0  0  0  0  0  0  0  0  0  0
   -0.1676   -2.0845   11.4008 H   0  0  0  0  0  0  0  0  0  0  0  0
   -2.5979   -1.1416   -0.6923 H   0  0  0  0  0  0  0  0  0  0  0  0
  1  2  1  0  0  0  0
  1 33  1  0  0  0  0
  1 34  1  0  0  0  0
  1 35  1  0  0  0  0
  2  7  2  0  0  0  0
  2  3  1  0  0  0  0
  3  4  2  0  0  0  0
  3 36  1  0  0  0  0
  4  5  1  0  0  0  0
  4 37  1  0  0  0  0
  5  6  2  0  0  0  0
  5 38  1  0  0  0  0
  6  7  1  0  0  0  0
  6  8  1  0  0  0  0
  7 39  1  0  0  0  0
  8  9  2  0  0  0  0
  9 10  1  0  0  0  0
  9 11  1  0  0  0  0
 10 40  1  0  0  0  0
 10 54  1  0  0  0  0
 11 12  1  0  0  0  0
 11 41  1  0  0  0  0
 12 18  1  0  0  0  0
 12 13  2  0  0  0  0
 13 14  1  0  0  0  0
 14 15  1  1  0  0  0
 14 16  1  0  0  0  0
 14 19  1  0  0  0  0
 16 17  1  0  0  0  0
 16 18  2  0  0  0  0
 19 20  1  0  0  0  0
 19 42  1  0  0  0  0
 19 43  1  0  0  0  0
 20 21  2  0  0  0  0
 20 22  1  0  0  0  0
 22 23  1  0  0  0  0
 22 44  1  0  0  0  0
 23 28  2  0  0  0  0
 23 24  1  0  0  0  0
 24 25  2  0  0  0  0
 24 45  1  0  0  0  0
 25 26  1  0  0  0  0
 25 31  1  0  0  0  0
 26 27  2  0  0  0  0
 26 46  1  0  0  0  0
 27 28  1  0  0  0  0
 27 47  1  0  0  0  0
 28 29  1  0  0  0  0
 29 30  1  0  0  0  0
 30 48  1  0  0  0  0
 30 49  1  0  0  0  0
 30 50  1  0  0  0  0
 31 32  1  0  0  0  0
 32 51  1  0  0  0  0
 32 52  1  0  0  0  0
 32 53  1  0  0  0  0
M  CHG  1  17  -1
M  END
$$$$
ZINC13413980
 OpenBabel01252620473D

 59 62  0  0  1  0  0  0  0  0999 V2000
    9.7032    1.2983   -0.0853 C   0  0  0  0  0  0  0  0  0  0  0  0
    8.2349    1.6369   -0.0688 C   0  0  0  0  0  0  0  0  0  0  0  0
    7.2229    0.7487   -0.0642 C   0  0  0  0  0  0  0  0  0  0  0  0
    6.0122    1.4863   -0.0478 C   0  0  0  0  0  0  0  0  0  0  0  0
    6.3467    2.8041   -0.0491 C   0  0  0  0  0  0  0  0  0  0  0  0
    7.7074    2.8946   -0.0559 N   0  0  0  0  0  0  0  0  0  0  0  0
    8.4776    4.1407   -0.0564 C   0  0  0  0  0  0  0  0  0  0  0  0
    8.7316    4.5828   -1.4990 C   0  0  1  0  0  0  0  0  0  0  0  0
    7.7884    4.6739   -2.0377 H   0  0  0  0  0  0  0  0  0  0  0  0
    9.4987    5.9288   -1.5219 C   0  0  0  0  0  0  0  0  0  0  0  0
   10.1883    5.8515   -2.9113 C   0  0  0  0  0  0  0  0  0  0  0  0
   10.4820    4.3421   -3.0477 C   0  0  0  0  0  0  0  0  0  0  0  0
    9.5962    3.6470   -2.1623 O   0  0  0  0  0  0  0  0  0  0  0  0
    5.3824    3.9622   -0.0403 C   0  0  0  0  0  0  0  0  0  0  0  0
    4.6374    0.9251   -0.0377 C   0  0  0  0  0  0  0  0  0  0  0  0
    4.4288   -0.4250   -0.0434 C   0  0  0  0  0  0  0  0  0  0  0  0
    2.6433   -0.4860   -0.0264 S   0  0  0  0  0  0  0  0  0  0  0  0
    2.3547    1.2259   -0.0138 C   0  0  0  0  0  0  0  0  0  0  0  0
    3.5764    1.7192   -0.0283 N   0  0  0  0  0  0  0  0  0  0  0  0
    1.1435    1.9034    0.0014 N   0  0  0  0  0  0  0  0  0  0  0  0
   -0.0144    1.2137    0.0087 C   0  0  0  0  0  0  0  0  0  0  0  0
    0.0021   -0.0041    0.0020 O   0  0  0  0  0  0  0  0  0  0  0  0
   -1.2491    1.9043    0.0183 C   0  0  0  0  0  0  0  0  0  0  0  0
   -2.4146    1.2101    0.0201 C   0  0  0  0  0  0  0  0  0  0  0  0
   -3.6503    1.9013    0.0297 C   0  0  0  0  0  0  0  0  0  0  0  0
   -4.9040    1.3254    0.0270 C   0  0  0  0  0  0  0  0  0  0  0  0
   -5.8282    2.3811    0.0429 C   0  0  0  0  0  0  0  0  0  0  0  0
   -5.1202    3.5323    0.0452 C   0  0  0  0  0  0  0  0  0  0  0  0
   -3.8120    3.2410    0.0373 O   0  0  0  0  0  0  0  0  0  0  0  0
   -5.7072    4.9202    0.0552 C   0  0  0  0  0  0  0  0  0  0  0  0
   -5.8981    5.3829    1.5010 C   0  0  0  0  0  0  0  0  0  0  0  0
   -6.4851    6.7708    1.5109 C   0  0  0  0  0  0  0  0  0  0  0  0
   -6.7261    7.3323    0.4686 O   0  0  0  0  0  0  0  0  0  0  0  0
   10.0472    1.2233   -1.1169 H   0  0  0  0  0  0  0  0  0  0  0  0
   10.2623    2.0805    0.4282 H   0  0  0  0  0  0  0  0  0  0  0  0
    9.8622    0.3461    0.4208 H   0  0  0  0  0  0  0  0  0  0  0  0
    7.3162   -0.3273   -0.0722 H   0  0  0  0  0  0  0  0  0  0  0  0
    7.9167    4.9148    0.4674 H   0  0  0  0  0  0  0  0  0  0  0  0
    9.4307    3.9790    0.4472 H   0  0  0  0  0  0  0  0  0  0  0  0
    8.8116    6.7735   -1.4708 H   0  0  0  0  0  0  0  0  0  0  0  0
   10.2353    5.9749   -0.7197 H   0  0  0  0  0  0  0  0  0  0  0  0
   11.1129    6.4288   -2.9181 H   0  0  0  0  0  0  0  0  0  0  0  0
    9.5137    6.1882   -3.6985 H   0  0  0  0  0  0  0  0  0  0  0  0
   11.5164    4.1400   -2.7697 H   0  0  0  0  0  0  0  0  0  0  0  0
   10.3046    4.0222   -4.0745 H   0  0  0  0  0  0  0  0  0  0  0  0
    5.1583    4.2406    0.9894 H   0  0  0  0  0  0  0  0  0  0  0  0
    5.8297    4.8113   -0.5571 H   0  0  0  0  0  0  0  0  0  0  0  0
    4.4618    3.6723   -0.5469 H   0  0  0  0  0  0  0  0  0  0  0  0
    5.1456   -1.2327   -0.0546 H   0  0  0  0  0  0  0  0  0  0  0  0
    1.1303    2.8733    0.0067 H   0  0  0  0  0  0  0  0  0  0  0  0
   -1.2637    2.9842    0.0243 H   0  0  0  0  0  0  0  0  0  0  0  0
   -2.4000    0.1302    0.0141 H   0  0  0  0  0  0  0  0  0  0  0  0
   -5.1297    0.2693    0.0172 H   0  0  0  0  0  0  0  0  0  0  0  0
   -6.9044    2.2906    0.0475 H   0  0  0  0  0  0  0  0  0  0  0  0
   -5.0318    5.6041   -0.4589 H   0  0  0  0  0  0  0  0  0  0  0  0
   -6.6711    4.9107   -0.4536 H   0  0  0  0  0  0  0  0  0  0  0  0
   -6.5735    4.6991    2.0151 H   0  0  0  0  0  0  0  0  0  0  0  0
   -4.9342    5.3925    2.0097 H   0  0  0  0  0  0  0  0  0  0  0  0
   -6.7403    7.3833    2.6778 O   0  0  0  0  0  1  0  0  0  0  0  0
  1  2  1  0  0  0  0
  1 34  1  0  0  0  0
  1 35  1  0  0  0  0
  1 36  1  0  0  0  0
  2  6  1  0  0  0  0
  2  3  2  0  0  0  0
  3  4  1  0  0  0  0
  3 37  1  0  0  0  0
  4  5  2  0  0  0  0
  4 15  1  0  0  0  0
  5  6  1  0  0  0  0
  5 14  1  0  0  0  0
  6  7  1  0  0  0  0
  7  8  1  0  0  0  0
  7 38  1  0  0  0  0
  7 39  1  0  0  0  0
  8  9  1  6  0  0  0
  8 13  1  0  0  0  0
  8 10  1  0  0  0  0
 10 11  1  0  0  0  0
 10 40  1  0  0  0  0
 10 41  1  0  0  0  0
 11 12  1  0  0  0  0
 11 42  1  0  0  0  0
 11 43  1  0  0  0  0
 12 13  1  0  0  0  0
 12 44  1  0  0  0  0
 12 45  1  0  0  0  0
 14 46  1  0  0  0  0
 14 47  1  0  0  0  0
 14 48  1  0  0  0  0
 15 19  1  0  0  0  0
 15 16  2  0  0  0  0
 16 17  1  0  0  0  0
 16 49  1  0  0  0  0
 17 18  1  0  0  0  0
 18 19  2  0  0  0  0
 18 20  1  0  0  0  0
 20 21  1  0  0  0  0
 20 50  1  0  0  0  0
 21 22  2  0  0  0  0
 21 23  1  0  0  0  0
 23 24  2  0  0  0  0
 23 51  1  0  0  0  0
 24 25  1  0  0  0  0
 24 52  1  0  0  0  0
 25 29  1  0  0  0  0
 25 26  2  0  0  0  0
 26 27  1  0  0  0  0
 26 53  1  0  0  0  0
 27 28  2  0  0  0  0
 27 54  1  0  0  0  0
 28 29  1  0  0  0  0
 28 30  1  0  0  0  0
 30 31  1  0  0  0  0
 30 55  1  0  0  0  0
 30 56  1  0  0  0  0
 31 32  1  0  0  0  0
 31 57  1  0  0  0  0
 31 58  1  0  0  0  0
 32 33  2  0  0  0  0
 32 59  1  0  0  0  0
M  END
$$$$
ZINC40689673
 OpenBabel01252620473D

 35 36  0  0  1  0  0  0  0  0999 V2000
   -0.0187    1.5258    0.0104 C   0  0  0  0  0  0  0  0  0  0  0  0
    0.0021   -0.0041    0.0020 C   0  0  0  0  0  0  0  0  0  0  0  0
   -1.3386   -0.4987    0.0122 O   0  0  0  0  0  0  0  0  0  0  0  0
   -1.4321   -1.9246    0.0054 C   0  0  1  0  0  0  0  0  0  0  0  0
   -1.4499   -2.4412    1.4459 C   0  0  0  0  0  0  0  0  0  0  0  0
   -1.5153   -3.9717    1.4344 C   0  0  0  0  0  0  0  0  0  0  0  0
   -2.6709   -4.3897    0.6291 N   0  0  0  0  0  0  0  0  0  0  0  0
   -2.7990   -3.8772   -0.7419 C   0  0  0  0  0  0  0  0  0  0  0  0
   -2.7192   -2.3478   -0.7061 C   0  0  0  0  0  0  0  0  0  0  0  0
   -3.5957   -5.2276    1.1381 C   0  0  0  0  0  0  0  0  0  0  0  0
   -3.4784   -5.6440    2.2712 O   0  0  0  0  0  0  0  0  0  0  0  0
   -4.7754   -5.6471    0.2995 C   0  0  1  0  0  0  0  0  0  0  0  0
   -5.1569   -4.8911   -0.3868 H   0  0  0  0  0  0  0  0  0  0  0  0
   -4.8370   -7.1074   -0.1529 C   0  0  0  0  0  0  0  0  0  0  0  0
   -5.7892   -6.6015    0.9336 C   0  0  2  0  0  0  0  0  0  0  0  0
   -5.6029   -6.9260    1.9574 H   0  0  0  0  0  0  0  0  0  0  0  0
   -7.2387   -6.4248    0.5611 C   0  0  0  0  0  0  0  0  0  0  0  0
   -7.9875   -7.3869    0.5520 O   0  0  0  0  0  0  0  0  0  0  0  0
   -7.6626   -5.3196    0.2689 O   0  0  0  0  0  1  0  0  0  0  0  0
    1.0039    1.9031    0.0027 H   0  0  0  0  0  0  0  0  0  0  0  0
   -0.5459    1.8868   -0.8726 H   0  0  0  0  0  0  0  0  0  0  0  0
   -0.5289    1.8773    0.9072 H   0  0  0  0  0  0  0  0  0  0  0  0
    0.5123   -0.3556   -0.8948 H   0  0  0  0  0  0  0  0  0  0  0  0
    0.5293   -0.3651    0.8851 H   0  0  0  0  0  0  0  0  0  0  0  0
   -0.5729   -2.3424   -0.5194 H   0  0  0  0  0  0  0  0  0  0  0  0
   -0.5436   -2.1196    1.9590 H   0  0  0  0  0  0  0  0  0  0  0  0
   -2.3225   -2.0437    1.9641 H   0  0  0  0  0  0  0  0  0  0  0  0
   -0.6010   -4.3732    0.9975 H   0  0  0  0  0  0  0  0  0  0  0  0
   -1.6280   -4.3403    2.4540 H   0  0  0  0  0  0  0  0  0  0  0  0
   -1.9894   -4.2710   -1.3564 H   0  0  0  0  0  0  0  0  0  0  0  0
   -3.7586   -4.1834   -1.1583 H   0  0  0  0  0  0  0  0  0  0  0  0
   -3.5799   -1.9511   -0.1676 H   0  0  0  0  0  0  0  0  0  0  0  0
   -2.7163   -1.9597   -1.7247 H   0  0  0  0  0  0  0  0  0  0  0  0
   -5.2593   -7.3121   -1.1367 H   0  0  0  0  0  0  0  0  0  0  0  0
   -4.0242   -7.7647    0.1561 H   0  0  0  0  0  0  0  0  0  0  0  0
  1  2  1  0  0  0  0
  1 20  1  0  0  0  0
  1 21  1  0  0  0  0
  1 22  1  0  0  0  0
  2  3  1  0  0  0  0
  2 23  1  0  0  0  0
  2 24  1  0  0  0  0
  3  4  1  0  0  0  0
  4  9  1  0  0  0  0
  4  5  1  0  0  0  0
  4 25  1  6  0  0  0
  5  6  1  0  0  0  0
  5 26  1  0  0  0  0
  5 27  1  0  0  0  0
  6  7  1  0  0  0  0
  6 28  1  0  0  0  0
  6 29  1  0  0  0  0
  7  8  1  0  0  0  0
  7 10  1  0  0  0  0
  8  9  1  0  0  0  0
  8 30  1  0  0  0  0
  8 31  1  0  0  0  0
  9 32  1  0  0  0  0
  9 33  1  0  0  0  0
 10 11  2  0  0  0  0
 10 12  1  0  0  0  0
 12 13  1  6  0  0  0
 12 15  1  0  0  0  0
 12 14  1  0  0  0  0
 14 15  1  0  0  0  0
 14 34  1  0  0  0  0
 14 35  1  0  0  0  0
 15 16  1  1  0  0  0
 15 17  1  0  0  0  0
 17 18  2  0  0  0  0
 17 19  1  0  0  0  0
M  END
$$$$
ZINC40098617
 OpenBabel01252620473D

 57 59  0  0  1  0  0  0  0  0999 V2000
   -0.4888    2.3118   -1.4932 C   0  0  0  0  0  0  0  0  0  0  0  0
   -0.5271    0.8236   -1.2590 C   0  0  0  0  0  0  0  0  0  0  0  0
   -0.2975   -0.0871   -2.2838 C   0  0  0  0  0  0  0  0  0  0  0  0
   -0.4761   -1.6267   -1.3964 S   0  0  0  0  0  0  0  0  0  0  0  0
   -0.8101   -0.9825    0.1220 C   0  0  0  0  0  0  0  0  0  0  0  0
   -0.7730    0.3155   -0.0776 N   0  0  0  0  0  0  0  0  0  0  0  0
   -1.0819   -1.7200    1.4078 C   0  0  0  0  0  0  0  0  0  0  0  0
    0.0061    0.1501   -3.6988 C   0  0  0  0  0  0  0  0  0  0  0  0
   -0.0480    1.2794   -4.1524 O   0  0  0  0  0  0  0  0  0  0  0  0
    0.3752   -0.9733   -4.5685 C   0  0  0  0  0  0  0  0  0  0  0  0
    0.5355   -0.9352   -5.9109 C   0  0  0  0  0  0  0  0  0  0  0  0
    0.9080   -2.2801   -6.3943 C   0  0  0  0  0  0  0  0  0  0  0  0
    1.1217   -2.5694   -7.5549 O   0  0  0  0  0  0  0  0  0  0  0  0
    0.9764   -3.1376   -5.3597 N   0  0  0  0  0  0  0  0  0  0  0  0
    0.6557   -2.3935   -4.1359 C   0  0  1  0  0  0  0  0  0  0  0  0
   -0.2264   -2.8215   -3.6597 H   0  0  0  0  0  0  0  0  0  0  0  0
    1.8250   -2.4245   -3.1858 C   0  0  0  0  0  0  0  0  0  0  0  0
    1.7689   -3.2063   -2.0465 C   0  0  0  0  0  0  0  0  0  0  0  0
    2.8399   -3.2369   -1.1729 C   0  0  0  0  0  0  0  0  0  0  0  0
    3.9692   -2.4857   -1.4360 C   0  0  0  0  0  0  0  0  0  0  0  0
    4.0280   -1.7007   -2.5781 C   0  0  0  0  0  0  0  0  0  0  0  0
    2.9541   -1.6764   -3.4565 C   0  0  0  0  0  0  0  0  0  0  0  0
    5.1377   -0.9609   -2.8392 O   0  0  0  0  0  0  0  0  0  0  0  0
    6.2067   -1.0392   -1.8941 C   0  0  0  0  0  0  0  0  0  0  0  0
    7.3430   -0.1590   -2.3470 C   0  0  0  0  0  0  0  0  0  0  0  0
    7.9449    0.6269   -1.4890 C   0  0  0  0  0  0  0  0  0  0  0  0
    1.3157   -4.5605   -5.4399 C   0  0  0  0  0  0  0  0  0  0  0  0
    0.0421   -5.3764   -5.6700 C   0  0  0  0  0  0  0  0  0  0  0  0
   -0.5571   -4.9854   -6.9071 O   0  0  0  0  0  0  0  0  0  0  0  0
   -1.8152   -5.6113   -7.1669 C   0  0  0  0  0  0  0  0  0  0  0  0
   -2.3034   -5.2153   -8.5618 C   0  0  0  0  0  0  0  0  0  0  0  0
   -1.3867   -5.7029   -9.5436 O   0  0  0  0  0  0  0  0  0  0  0  0
    0.3792    0.1619   -6.6884 O   0  5  0  0  0  0  0  0  0  0  0  0
    0.5257    2.6783   -1.3367 H   0  0  0  0  0  0  0  0  0  0  0  0
   -0.7991    2.5268   -2.5157 H   0  0  0  0  0  0  0  0  0  0  0  0
   -1.1654    2.8067   -0.7965 H   0  0  0  0  0  0  0  0  0  0  0  0
   -0.1430   -1.8891    1.9351 H   0  0  0  0  0  0  0  0  0  0  0  0
   -1.7481   -1.1261    2.0335 H   0  0  0  0  0  0  0  0  0  0  0  0
   -1.5511   -2.6782    1.1848 H   0  0  0  0  0  0  0  0  0  0  0  0
    0.8867   -3.7937   -1.8387 H   0  0  0  0  0  0  0  0  0  0  0  0
    2.7936   -3.8483   -0.2838 H   0  0  0  0  0  0  0  0  0  0  0  0
    4.8053   -2.5094   -0.7529 H   0  0  0  0  0  0  0  0  0  0  0  0
    2.9993   -1.0697   -4.3488 H   0  0  0  0  0  0  0  0  0  0  0  0
    5.8544   -0.7044   -0.9185 H   0  0  0  0  0  0  0  0  0  0  0  0
    6.5525   -2.0703   -1.8214 H   0  0  0  0  0  0  0  0  0  0  0  0
    7.6611   -0.1761   -3.3789 H   0  0  0  0  0  0  0  0  0  0  0  0
    7.6268    0.6440   -0.4570 H   0  0  0  0  0  0  0  0  0  0  0  0
    8.7593    1.2576   -1.8135 H   0  0  0  0  0  0  0  0  0  0  0  0
    2.0060   -4.7233   -6.2677 H   0  0  0  0  0  0  0  0  0  0  0  0
    1.7854   -4.8751   -4.5080 H   0  0  0  0  0  0  0  0  0  0  0  0
    0.2915   -6.4368   -5.7062 H   0  0  0  0  0  0  0  0  0  0  0  0
   -0.6577   -5.1953   -4.8542 H   0  0  0  0  0  0  0  0  0  0  0  0
   -1.6997   -6.6940   -7.1162 H   0  0  0  0  0  0  0  0  0  0  0  0
   -2.5425   -5.2882   -6.4221 H   0  0  0  0  0  0  0  0  0  0  0  0
   -3.2885   -5.6472   -8.7382 H   0  0  0  0  0  0  0  0  0  0  0  0
   -2.3653   -4.1292   -8.6303 H   0  0  0  0  0  0  0  0  0  0  0  0
   -1.6337   -5.4880  -10.4535 H   0  0  0  0  0  0  0  0  0  0  0  0
  1  2  1  0  0  0  0
  1 34  1  0  0  0  0
  1 35  1  0  0  0  0
  1 36  1  0  0  0  0
  2  6  1  0  0  0  0
  2  3  2  0  0  0  0
  3  4  1  0  0  0  0
  3  8  1  0  0  0  0
  4  5  1  0  0  0  0
  5  6  2  0  0  0  0
  5  7  1  0  0  0  0
  7 37  1  0  0  0  0
  7 38  1  0  0  0  0
  7 39  1  0  0  0  0
  8  9  2  0  0  0  0
  8 10  1  0  0  0  0
 10 15  1  0  0  0  0
 10 11  2  0  0  0  0
 11 12  1  0  0  0  0
 11 33  1  0  0  0  0
 12 13  2  0  0  0  0
 12 14  1  0  0  0  0
 14 15  1  0  0  0  0
 14 27  1  0  0  0  0
 15 16  1  1  0  0  0
 15 17  1  0  0  0  0
 17 22  2  0  0  0  0
 17 18  1  0  0  0  0
 18 19  2  0  0  0  0
 18 40  1  0  0  0  0
 19 20  1  0  0  0  0
 19 41  1  0  0  0  0
 20 21  2  0  0  0  0
 20 42  1  0  0  0  0
 21 22  1  0  0  0  0
 21 23  1  0  0  0  0
 22 43  1  0  0  0  0
 23 24  1  0  0  0  0
 24 25  1  0  0  0  0
 24 44  1  0  0  0  0
 24 45  1  0  0  0  0
 25 26  2  0  0  0  0
 25 46  1  0  0  0  0
 26 47  1  0  0  0  0
 26 48  1  0  0  0  0
 27 28  1  0  0  0  0
 27 49  1  0  0  0  0
 27 50  1  0  0  0  0
 28 29  1  0  0  0  0
 28 51  1  0  0  0  0
 28 52  1  0  0  0  0
 29 30  1  0  0  0  0
 30 31  1  0  0  0  0
 30 53  1  0  0  0  0
 30 54  1  0  0  0  0
 31 32  1  0  0  0  0
 31 55  1  0  0  0  0
 31 56  1  0  0  0  0
 32 57  1  0  0  0  0
M  CHG  1  33  -1
M  END
$$$$
ZINC13461715
 OpenBabel01252620473D

 53 55  0  0  1  0  0  0  0  0999 V2000
    1.2590    0.0409    9.8261 C   0  0  0  0  0  0  0  0  0  0  0  0
    2.3180   -0.8361    9.9835 C   0  0  0  0  0  0  0  0  0  0  0  0
    3.5232   -0.5990    9.3497 C   0  0  0  0  0  0  0  0  0  0  0  0
    3.6775    0.5282    8.5467 C   0  0  0  0  0  0  0  0  0  0  0  0
    2.6002    1.4205    8.3865 C   0  0  0  0  0  0  0  0  0  0  0  0
    1.3950    1.1675    9.0374 C   0  0  0  0  0  0  0  0  0  0  0  0
    2.7492    2.6220    7.5373 C   0  0  0  0  0  0  0  0  0  0  0  0
    2.9035    3.7136    8.0501 O   0  0  0  0  0  0  0  0  0  0  0  0
    2.7106    2.4963    6.0697 C   0  0  0  0  0  0  0  0  0  0  0  0
    2.4161    1.2620    5.4788 C   0  0  0  0  0  0  0  0  0  0  0  0
    2.3756    1.1506    4.1182 C   0  0  0  0  0  0  0  0  0  0  0  0
    2.6375    2.2609    3.3186 C   0  0  0  0  0  0  0  0  0  0  0  0
    2.9309    3.4906    3.9031 C   0  0  0  0  0  0  0  0  0  0  0  0
    2.9679    3.6107    5.2633 C   0  0  0  0  0  0  0  0  0  0  0  0
    3.2034    4.6687    3.0493 N   0  0  0  0  0  4  0  0  0  0  0  0
    3.5686    5.7152    3.5541 O   0  0  0  0  0  0  0  0  0  0  0  0
    3.0623    4.5915    1.8419 O   0  5  0  0  0  0  0  0  0  0  0  0
    2.6002    2.1426    1.9347 N   0  0  0  0  0  0  0  0  0  0  0  0
    2.4118    0.8278    1.3167 C   0  0  2  0  0  0  0  0  0  0  0  0
    1.7447    0.2277    1.9355 H   0  0  0  0  0  0  0  0  0  0  0  0
    3.7645    0.1235    1.1938 C   0  0  0  0  0  0  0  0  0  0  0  0
    4.5994    0.8500    0.2897 O   0  0  0  0  0  0  0  0  0  0  0  0
    1.7988    1.0012   -0.0744 C   0  0  1  0  0  0  0  0  0  0  0  0
    1.5766    0.0218   -0.4981 H   0  0  0  0  0  0  0  0  0  0  0  0
    0.5270    1.8022    0.0334 C   0  0  0  0  0  0  0  0  0  0  0  0
   -0.6912    1.1557    0.1280 C   0  0  0  0  0  0  0  0  0  0  0  0
   -1.8583    1.8905    0.2211 C   0  0  0  0  0  0  0  0  0  0  0  0
   -1.8064    3.2719    0.2308 C   0  0  0  0  0  0  0  0  0  0  0  0
   -0.5883    3.9185    0.1357 C   0  0  0  0  0  0  0  0  0  0  0  0
    0.5784    3.1836    0.0373 C   0  0  0  0  0  0  0  0  0  0  0  0
   -3.0557    4.0587    0.3367 N   0  0  0  0  0  4  0  0  0  0  0  0
   -3.0104    5.2759    0.3401 O   0  0  0  0  0  0  0  0  0  0  0  0
   -4.1290    3.4890    0.4204 O   0  5  0  0  0  0  0  0  0  0  0  0
    2.7238    1.6874   -0.9203 O   0  0  0  0  0  0  0  0  0  0  0  0
    4.9641    0.7861    7.8664 C   0  0  0  0  0  0  0  0  0  0  0  0
    5.1297    1.8209    7.2524 O   0  0  0  0  0  0  0  0  0  0  0  0
    0.3219   -0.1541   10.3263 H   0  0  0  0  0  0  0  0  0  0  0  0
    2.2021   -1.7112   10.6058 H   0  0  0  0  0  0  0  0  0  0  0  0
    4.3453   -1.2876    9.4776 H   0  0  0  0  0  0  0  0  0  0  0  0
    0.5655    1.8496    8.9225 H   0  0  0  0  0  0  0  0  0  0  0  0
    2.2170    0.3999    6.0980 H   0  0  0  0  0  0  0  0  0  0  0  0
    2.1440    0.1996    3.6616 H   0  0  0  0  0  0  0  0  0  0  0  0
    3.1951    4.5646    5.7159 H   0  0  0  0  0  0  0  0  0  0  0  0
    2.6990    2.9306    1.3777 H   0  0  0  0  0  0  0  0  0  0  0  0
    4.2414    0.0792    2.1729 H   0  0  0  0  0  0  0  0  0  0  0  0
    3.6145   -0.8881    0.8166 H   0  0  0  0  0  0  0  0  0  0  0  0
    5.4751    0.4598    0.1632 H   0  0  0  0  0  0  0  0  0  0  0  0
   -0.7314    0.0764    0.1247 H   0  0  0  0  0  0  0  0  0  0  0  0
   -2.8104    1.3854    0.2906 H   0  0  0  0  0  0  0  0  0  0  0  0
   -0.5482    4.9977    0.1387 H   0  0  0  0  0  0  0  0  0  0  0  0
    1.5301    3.6888   -0.0370 H   0  0  0  0  0  0  0  0  0  0  0  0
    2.9672    2.5682   -0.6040 H   0  0  0  0  0  0  0  0  0  0  0  0
    5.9531   -0.1266    7.9273 O   0  0  0  0  0  1  0  0  0  0  0  0
  1  6  2  0  0  0  0
  1  2  1  0  0  0  0
  1 37  1  0  0  0  0
  2  3  2  0  0  0  0
  2 38  1  0  0  0  0
  3  4  1  0  0  0  0
  3 39  1  0  0  0  0
  4  5  2  0  0  0  0
  4 35  1  0  0  0  0
  5  6  1  0  0  0  0
  5  7  1  0  0  0  0
  6 40  1  0  0  0  0
  7  8  2  0  0  0  0
  7  9  1  0  0  0  0
  9 14  2  0  0  0  0
  9 10  1  0  0  0  0
 10 11  2  0  0  0  0
 10 41  1  0  0  0  0
 11 12  1  0  0  0  0
 11 42  1  0  0  0  0
 12 13  2  0  0  0  0
 12 18  1  0  0  0  0
 13 14  1  0  0  0  0
 13 15  1  0  0  0  0
 14 43  1  0  0  0  0
 15 16  2  0  0  0  0
 15 17  1  0  0  0  0
 18 19  1  0  0  0  0
 18 44  1  0  0  0  0
 19 20  1  1  0  0  0
 19 21  1  0  0  0  0
 19 23  1  0  0  0  0
 21 22  1  0  0  0  0
 21 45  1  0  0  0  0
 21 46  1  0  0  0  0
 22 47  1  0  0  0  0
 23 24  1  6  0  0  0
 23 25  1  0  0  0  0
 23 34  1  0  0  0  0
 25 30  2  0  0  0  0
 25 26  1  0  0  0  0
 26 27  2  0  0  0  0
 26 48  1  0  0  0  0
 27 28  1  0  0  0  0
 27 49  1  0  0  0  0
 28 29  2  0  0  0  0
 28 31  1  0  0  0  0
 29 30  1  0  0  0  0
 29 50  1  0  0  0  0
 30 51  1  0  0  0  0
 31 32  2  0  0  0  0
 31 33  1  0  0  0  0
 34 52  1  0  0  0  0
 35 36  2  0  0  0  0
 35 53  1  0  0  0  0
M  CHG  2  17  -1  33  -1
M  END
$$$$
ZINC13276512
 OpenBabel01252620473D

 47 50  0  0  1  0  0  0  0  0999 V2000
   -0.5673    5.5092   -6.1109 C   0  0  0  0  0  0  0  0  0  0  0  0
   -0.7375    4.6159   -5.0715 C   0  0  0  0  0  0  0  0  0  0  0  0
   -1.2774    3.3599   -5.3186 C   0  0  0  0  0  0  0  0  0  0  0  0
   -1.6546    3.0111   -6.6098 C   0  0  0  0  0  0  0  0  0  0  0  0
   -1.4864    3.9111   -7.6432 C   0  0  0  0  0  0  0  0  0  0  0  0
   -0.9433    5.1586   -7.3946 C   0  0  0  0  0  0  0  0  0  0  0  0
   -0.7305    6.3040   -8.7165 S   0  0  0  0  0  0  0  0  0  0  0  0
    0.3006    7.1970   -8.3182 O   0  0  0  0  0  0  0  0  0  0  0  0
   -0.6549    5.5369   -9.9103 O   0  0  0  0  0  0  0  0  0  0  0  0
   -2.1198    7.1997   -8.8167 N   0  0  0  0  0  0  0  0  0  0  0  0
   -3.2304    6.7651   -9.6749 C   0  0  0  0  0  0  0  0  0  0  0  0
   -3.6078    7.9071  -10.6166 C   0  0  0  0  0  0  0  0  0  0  0  0
   -3.9018    9.1655   -9.7968 C   0  0  1  0  0  0  0  0  0  0  0  0
   -2.6490    9.5732   -9.0181 C   0  0  0  0  0  0  0  0  0  0  0  0
   -2.2629    8.4472   -8.0538 C   0  0  0  0  0  0  0  0  0  0  0  0
   -4.3043   10.2848  -10.7220 C   0  0  0  0  0  0  0  0  0  0  0  0
   -3.6560   11.3039  -10.7552 O   0  0  0  0  0  0  0  0  0  0  0  0
   -2.2355    1.6760   -6.8770 N   0  0  0  0  0  4  0  0  0  0  0  0
   -2.5659    1.3711   -8.0089 O   0  0  0  0  0  0  0  0  0  0  0  0
   -2.3831    0.8825   -5.9648 O   0  5  0  0  0  0  0  0  0  0  0  0
   -1.4901    2.2145   -3.9967 S   0  0  0  0  0  0  0  0  0  0  0  0
   -0.1229    1.1442   -4.2962 C   0  0  0  0  0  0  0  0  0  0  0  0
    0.8132    1.3079   -5.2056 N   0  0  0  0  0  0  0  0  0  0  0  0
    1.6581    0.3418   -5.1605 N   0  0  0  0  0  0  0  0  0  0  0  0
    1.3351   -0.4929   -4.2329 N   0  0  0  0  0  0  0  0  0  0  0  0
    0.1639    0.0000   -3.6314 N   0  0  0  0  0  0  0  0  0  0  0  0
   -0.5885   -0.5991   -2.5263 C   0  0  0  0  0  0  0  0  0  0  0  0
   -1.1558   -2.0042   -2.7378 C   0  0  0  0  0  0  0  0  0  0  0  0
    0.0418   -1.7953   -1.8088 C   0  0  0  0  0  0  0  0  0  0  0  0
   -0.1438    6.4843   -5.9202 H   0  0  0  0  0  0  0  0  0  0  0  0
   -0.4477    4.8920   -4.0684 H   0  0  0  0  0  0  0  0  0  0  0  0
   -1.7797    3.6408   -8.6469 H   0  0  0  0  0  0  0  0  0  0  0  0
   -2.9229    5.8978  -10.2592 H   0  0  0  0  0  0  0  0  0  0  0  0
   -4.0899    6.5056   -9.0568 H   0  0  0  0  0  0  0  0  0  0  0  0
   -4.4933    7.6307  -11.1890 H   0  0  0  0  0  0  0  0  0  0  0  0
   -2.7798    8.1021  -11.2981 H   0  0  0  0  0  0  0  0  0  0  0  0
   -4.7135    8.9623   -9.0982 H   0  0  0  0  0  0  0  0  0  0  0  0
   -2.8520   10.4827   -8.4526 H   0  0  0  0  0  0  0  0  0  0  0  0
   -1.8300    9.7525   -9.7146 H   0  0  0  0  0  0  0  0  0  0  0  0
   -3.0419    8.3277   -7.3009 H   0  0  0  0  0  0  0  0  0  0  0  0
   -1.3172    8.6895   -7.5690 H   0  0  0  0  0  0  0  0  0  0  0  0
   -1.1761    0.0959   -1.9264 H   0  0  0  0  0  0  0  0  0  0  0  0
   -2.1164   -2.2338   -2.2766 H   0  0  0  0  0  0  0  0  0  0  0  0
   -0.9695   -2.4827   -3.6992 H   0  0  0  0  0  0  0  0  0  0  0  0
   -0.1309   -1.8875   -0.7365 H   0  0  0  0  0  0  0  0  0  0  0  0
    1.0161   -2.1361   -2.1593 H   0  0  0  0  0  0  0  0  0  0  0  0
   -5.3831   10.1497  -11.5092 O   0  0  0  0  0  1  0  0  0  0  0  0
  1  6  2  0  0  0  0
  1  2  1  0  0  0  0
  1 30  1  0  0  0  0
  2  3  2  0  0  0  0
  2 31  1  0  0  0  0
  3  4  1  0  0  0  0
  3 21  1  0  0  0  0
  4  5  2  0  0  0  0
  4 18  1  0  0  0  0
  5  6  1  0  0  0  0
  5 32  1  0  0  0  0
  6  7  1  0  0  0  0
  7  8  2  0  0  0  0
  7  9  2  0  0  0  0
  7 10  1  0  0  0  0
 10 15  1  0  0  0  0
 10 11  1  0  0  0  0
 11 12  1  0  0  0  0
 11 33  1  0  0  0  0
 11 34  1  0  0  0  0
 12 13  1  0  0  0  0
 12 35  1  0  0  0  0
 12 36  1  0  0  0  0
 13 14  1  0  0  0  0
 13 16  1  0  0  0  0
 13 37  1  1  0  0  0
 14 15  1  0  0  0  0
 14 38  1  0  0  0  0
 14 39  1  0  0  0  0
 15 40  1  0  0  0  0
 15 41  1  0  0  0  0
 16 17  2  0  0  0  0
 16 47  1  0  0  0  0
 18 19  2  0  0  0  0
 18 20  1  0  0  0  0
 21 22  1  0  0  0  0
 22 26  1  0  0  0  0
 22 23  2  0  0  0  0
 23 24  1  0  0  0  0
 24 25  2  0  0  0  0
 25 26  1  0  0  0  0
 26 27  1  0  0  0  0
 27 29  1  0  0  0  0
 27 28  1  0  0  0  0
 27 42  1  0  0  0  0
 28 29  1  0  0  0  0
 28 43  1  0  0  0  0
 28 44  1  0  0  0  0
 29 45  1  0  0  0  0
 29 46  1  0  0  0  0
M  CHG  1  20  -1
M  END
$$$$
ZINC21774430
 OpenBabel01252620473D

 46 48  0  0  0  0  0  0  0  0999 V2000
   -1.0873    1.2528   -0.1433 C   0  0  0  0  0  0  0  0  0  0  0  0
   -0.4626   -0.1165   -0.0672 C   0  0  0  0  0  0  0  0  0  0  0  0
    0.1298   -0.6684   -1.1895 C   0  0  0  0  0  0  0  0  0  0  0  0
    0.7055   -1.9248   -1.1282 C   0  0  0  0  0  0  0  0  0  0  0  0
    0.6926   -2.6359    0.0542 C   0  0  0  0  0  0  0  0  0  0  0  0
    0.0972   -2.0850    1.1898 C   0  0  0  0  0  0  0  0  0  0  0  0
   -0.4776   -0.8147    1.1223 C   0  0  0  0  0  0  0  0  0  0  0  0
    0.0798   -2.8413    2.4599 C   0  0  0  0  0  0  0  0  0  0  0  0
   -0.1207   -2.3472    3.6594 N   0  0  0  0  0  0  0  0  0  0  0  0
   -0.0695   -3.2865    4.5350 N   0  0  0  0  0  0  0  0  0  0  0  0
    0.1670   -4.4384    3.9477 C   0  0  0  0  0  0  0  0  0  0  0  0
    0.3214   -6.0039    4.7414 S   0  0  0  0  0  1  0  0  0  0  0  0
    0.2648   -4.1967    2.6072 N   0  0  0  0  0  0  0  0  0  0  0  0
    0.5173   -5.1759    1.5473 C   0  0  0  0  0  0  0  0  0  0  0  0
    2.0258   -5.3739    1.3847 C   0  0  0  0  0  0  0  0  0  0  0  0
    2.2856   -6.3812    0.2944 C   0  0  0  0  0  0  0  0  0  0  0  0
    1.3558   -6.8906   -0.2947 O   0  0  0  0  0  0  0  0  0  0  0  0
    3.5511   -6.7160   -0.0262 N   0  0  0  0  0  0  0  0  0  0  0  0
    3.8037   -7.6952   -1.0861 C   0  0  0  0  0  0  0  0  0  0  0  0
    5.3121   -7.8932   -1.2487 C   0  0  0  0  0  0  0  0  0  0  0  0
    5.5719   -8.9005   -2.3391 C   0  0  0  0  0  0  0  0  0  0  0  0
    6.3965   -8.5651   -3.3966 C   0  0  0  0  0  0  0  0  0  0  0  0
    6.6290   -9.4990   -4.3943 C   0  0  0  0  0  0  0  0  0  0  0  0
    6.0207  -10.7409   -4.2907 C   0  0  0  0  0  0  0  0  0  0  0  0
    5.2088  -11.0044   -3.2041 C   0  0  0  0  0  0  0  0  0  0  0  0
    5.0144  -10.0934   -2.2705 N   0  0  0  0  0  0  0  0  0  0  0  0
   -0.3390    2.0075    0.0988 H   0  0  0  0  0  0  0  0  0  0  0  0
   -1.4638    1.4249   -1.1516 H   0  0  0  0  0  0  0  0  0  0  0  0
   -1.9109    1.3165    0.5678 H   0  0  0  0  0  0  0  0  0  0  0  0
    0.1425   -0.1159   -2.1174 H   0  0  0  0  0  0  0  0  0  0  0  0
    1.1656   -2.3502   -2.0078 H   0  0  0  0  0  0  0  0  0  0  0  0
    1.1421   -3.6169    0.1007 H   0  0  0  0  0  0  0  0  0  0  0  0
   -0.9364   -0.3810    1.9986 H   0  0  0  0  0  0  0  0  0  0  0  0
    0.0527   -6.1257    1.8119 H   0  0  0  0  0  0  0  0  0  0  0  0
    0.0953   -4.8137    0.6099 H   0  0  0  0  0  0  0  0  0  0  0  0
    2.4904   -4.4240    1.1201 H   0  0  0  0  0  0  0  0  0  0  0  0
    2.4478   -5.7361    2.3221 H   0  0  0  0  0  0  0  0  0  0  0  0
    4.2947   -6.3085    0.4449 H   0  0  0  0  0  0  0  0  0  0  0  0
    3.3390   -8.6450   -0.8215 H   0  0  0  0  0  0  0  0  0  0  0  0
    3.3817   -7.3329   -2.0236 H   0  0  0  0  0  0  0  0  0  0  0  0
    5.7768   -6.9433   -1.5133 H   0  0  0  0  0  0  0  0  0  0  0  0
    5.7341   -8.2554   -0.3113 H   0  0  0  0  0  0  0  0  0  0  0  0
    6.8536   -7.5878   -3.4450 H   0  0  0  0  0  0  0  0  0  0  0  0
    7.2684   -9.2648   -5.2326 H   0  0  0  0  0  0  0  0  0  0  0  0
    6.1792  -11.4925   -5.0499 H   0  0  0  0  0  0  0  0  0  0  0  0
    4.7314  -11.9692   -3.1161 H   0  0  0  0  0  0  0  0  0  0  0  0
  1  2  1  0  0  0  0
  1 27  1  0  0  0  0
  1 28  1  0  0  0  0
  1 29  1  0  0  0  0
  2  7  2  0  0  0  0
  2  3  1  0  0  0  0
  3  4  2  0  0  0  0
  3 30  1  0  0  0  0
  4  5  1  0  0  0  0
  4 31  1  0  0  0  0
  5  6  2  0  0  0  0
  5 32  1  0  0  0  0
  6  7  1  0  0  0  0
  6  8  1  0  0  0  0
  7 33  1  0  0  0  0
  8 13  1  0  0  0  0
  8  9  2  0  0  0  0
  9 10  1  0  0  0  0
 10 11  2  0  0  0  0
 11 12  1  0  0  0  0
 11 13  1  0  0  0  0
 13 14  1  0  0  0  0
 14 15  1  0  0  0  0
 14 34  1  0  0  0  0
 14 35  1  0  0  0  0
 15 16  1  0  0  0  0
 15 36  1  0  0  0  0
 15 37  1  0  0  0  0
 16 17  2  0  0  0  0
 16 18  1  0  0  0  0
 18 19  1  0  0  0  0
 18 38  1  0  0  0  0
 19 20  1  0  0  0  0
 19 39  1  0  0  0  0
 19 40  1  0  0  0  0
 20 21  1  0  0  0  0
 20 41  1  0  0  0  0
 20 42  1  0  0  0  0
 21 26  2  0  0  0  0
 21 22  1  0  0  0  0
 22 23  2  0  0  0  0
 22 43  1  0  0  0  0
 23 24  1  0  0  0  0
 23 44  1  0  0  0  0
 24 25  2  0  0  0  0
 24 45  1  0  0  0  0
 25 26  1  0  0  0  0
 25 46  1  0  0  0  0
M  END
$$$$
ZINC48866545
 OpenBabel01252620473D

 30 31  0  0  0  0  0  0  0  0999 V2000
   -0.0184    1.5028    0.0103 C   0  0  0  0  0  0  0  0  0  0  0  0
    0.0021   -0.0041    0.0020 C   0  0  0  0  0  0  0  0  0  0  0  0
    0.0082   -0.7704   -1.0518 N   0  0  0  0  0  0  0  0  0  0  0  0
    0.0272   -2.0060   -0.6987 N   0  0  0  0  0  0  0  0  0  0  0  0
    0.0342   -2.0955    0.6111 C   0  0  0  0  0  0  0  0  0  0  0  0
    0.0236   -0.8203    1.0991 N   0  0  0  0  0  0  0  0  0  0  0  0
    0.0306   -0.4114    2.5058 C   0  0  0  0  0  0  0  0  0  0  0  0
   -1.3877   -0.2913    3.0011 C   0  0  0  0  0  0  0  0  0  0  0  0
   -2.0594    0.9120    2.8889 C   0  0  0  0  0  0  0  0  0  0  0  0
   -3.3602    1.0227    3.3430 C   0  0  0  0  0  0  0  0  0  0  0  0
   -3.9901   -0.0697    3.9095 C   0  0  0  0  0  0  0  0  0  0  0  0
   -3.3187   -1.2736    4.0215 C   0  0  0  0  0  0  0  0  0  0  0  0
   -2.0185   -1.3854    3.5621 C   0  0  0  0  0  0  0  0  0  0  0  0
   -4.1797   -2.7681    4.7969 Br  0  0  0  0  0  0  0  0  0  0  0  0
    0.0593   -3.5801    1.5598 S   0  0  0  0  0  0  0  0  0  0  0  0
    0.0732   -4.8975    0.3128 C   0  0  0  0  0  0  0  0  0  0  0  0
    0.0952   -6.2388    0.9994 C   0  0  0  0  0  0  0  0  0  0  0  0
    0.1010   -6.3003    2.2171 O   0  0  0  0  0  0  0  0  0  0  0  0
    0.1071   -7.2624    0.3373 O   0  0  0  0  0  1  0  0  0  0  0  0
    1.0042    1.8801    0.0026 H   0  0  0  0  0  0  0  0  0  0  0  0
   -0.5455    1.8639   -0.8728 H   0  0  0  0  0  0  0  0  0  0  0  0
   -0.5286    1.8543    0.9071 H   0  0  0  0  0  0  0  0  0  0  0  0
    0.5604   -1.1572    3.0984 H   0  0  0  0  0  0  0  0  0  0  0  0
    0.5317    0.5518    2.6018 H   0  0  0  0  0  0  0  0  0  0  0  0
   -1.5675    1.7657    2.4467 H   0  0  0  0  0  0  0  0  0  0  0  0
   -3.8844    1.9629    3.2555 H   0  0  0  0  0  0  0  0  0  0  0  0
   -5.0063    0.0171    4.2649 H   0  0  0  0  0  0  0  0  0  0  0  0
   -1.4952   -2.3264    3.6459 H   0  0  0  0  0  0  0  0  0  0  0  0
   -0.8205   -4.8209   -0.3065 H   0  0  0  0  0  0  0  0  0  0  0  0
    0.9593   -4.7954   -0.3137 H   0  0  0  0  0  0  0  0  0  0  0  0
  1  2  1  0  0  0  0
  1 20  1  0  0  0  0
  1 21  1  0  0  0  0
  1 22  1  0  0  0  0
  2  6  1  0  0  0  0
  2  3  2  0  0  0  0
  3  4  1  0  0  0  0
  4  5  2  0  0  0  0
  5  6  1  0  0  0  0
  5 15  1  0  0  0  0
  6  7  1  0  0  0  0
  7  8  1  0  0  0  0
  7 23  1  0  0  0  0
  7 24  1  0  0  0  0
  8 13  2  0  0  0  0
  8  9  1  0  0  0  0
  9 10  2  0  0  0  0
  9 25  1  0  0  0  0
 10 11  1  0  0  0  0
 10 26  1  0  0  0  0
 11 12  2  0  0  0  0
 11 27  1  0  0  0  0
 12 13  1  0  0  0  0
 12 14  1  0  0  0  0
 13 28  1  0  0  0  0
 15 16  1  0  0  0  0
 16 17  1  0  0  0  0
 16 29  1  0  0  0  0
 16 30  1  0  0  0  0
 17 18  2  0  0  0  0
 17 19  1  0  0  0  0
M  END
$$$$
ZINC60367201
 OpenBabel01252620473D

 34 35  0  0  0  0  0  0  0  0999 V2000
   -0.0173    1.4248    0.0099 C   0  0  0  0  0  0  0  0  0  0  0  0
    0.0021   -0.0041    0.0020 O   0  0  0  0  0  0  0  0  0  0  0  0
    0.6204   -0.6130    1.0324 C   0  0  0  0  0  0  0  0  0  0  0  0
    1.1291    0.0507    1.9134 O   0  0  0  0  0  0  0  0  0  0  0  0
    0.6796   -2.0879    1.0909 C   0  0  0  0  0  0  0  0  0  0  0  0
    0.1009   -2.8538    0.0769 C   0  0  0  0  0  0  0  0  0  0  0  0
    0.1599   -4.2306    0.1378 C   0  0  0  0  0  0  0  0  0  0  0  0
    0.7907   -4.8529    1.2005 C   0  0  0  0  0  0  0  0  0  0  0  0
    1.3660   -4.1000    2.2089 C   0  0  0  0  0  0  0  0  0  0  0  0
    1.3197   -2.7223    2.1574 C   0  0  0  0  0  0  0  0  0  0  0  0
    0.8614   -6.6121    1.2703 S   0  0  0  0  0  0  0  0  0  0  0  0
    1.0280   -6.9579    2.6384 O   0  0  0  0  0  0  0  0  0  0  0  0
   -0.2240   -7.0934    0.4895 O   0  0  0  0  0  0  0  0  0  0  0  0
    2.2471   -7.0777    0.4923 N   0  0  0  0  0  2  0  0  0  0  0  0
    2.5671   -8.4248    0.3908 C   0  0  0  0  0  0  0  0  0  0  0  0
    1.7247   -9.3846    0.9355 C   0  0  0  0  0  0  0  0  0  0  0  0
    2.0447  -10.7253    0.8337 C   0  0  0  0  0  0  0  0  0  0  0  0
    3.2103  -11.1237    0.1864 C   0  0  0  0  0  0  0  0  0  0  0  0
    4.0575  -10.1854   -0.3591 C   0  0  0  0  0  0  0  0  0  0  0  0
    3.7425   -8.8236   -0.2688 C   0  0  0  0  0  0  0  0  0  0  0  0
    4.6385   -7.8177   -0.8543 C   0  0  0  0  0  0  0  0  0  0  0  0
    5.6610   -8.1688   -1.4279 O   0  0  0  0  0  0  0  0  0  0  0  0
    4.3626   -6.6285   -0.7686 O   0  0  0  0  0  1  0  0  0  0  0  0
    3.5124  -12.4372    0.0933 F   0  0  0  0  0  0  0  0  0  0  0  0
    1.2211  -11.6545    1.3661 F   0  0  0  0  0  0  0  0  0  0  0  0
    1.0053    1.8021    0.0021 H   0  0  0  0  0  0  0  0  0  0  0  0
   -0.5445    1.7859   -0.8732 H   0  0  0  0  0  0  0  0  0  0  0  0
   -0.5275    1.7763    0.9067 H   0  0  0  0  0  0  0  0  0  0  0  0
   -0.3921   -2.3693   -0.7529 H   0  0  0  0  0  0  0  0  0  0  0  0
   -0.2877   -4.8242   -0.6456 H   0  0  0  0  0  0  0  0  0  0  0  0
    1.8562   -4.5921    3.0359 H   0  0  0  0  0  0  0  0  0  0  0  0
    1.7733   -2.1358    2.9426 H   0  0  0  0  0  0  0  0  0  0  0  0
    0.8184   -9.0832    1.4397 H   0  0  0  0  0  0  0  0  0  0  0  0
    4.9612  -10.4992   -0.8603 H   0  0  0  0  0  0  0  0  0  0  0  0
  1  2  1  0  0  0  0
  1 26  1  0  0  0  0
  1 27  1  0  0  0  0
  1 28  1  0  0  0  0
  2  3  1  0  0  0  0
  3  4  2  0  0  0  0
  3  5  1  0  0  0  0
  5 10  2  0  0  0  0
  5  6  1  0  0  0  0
  6  7  2  0  0  0  0
  6 29  1  0  0  0  0
  7  8  1  0  0  0  0
  7 30  1  0  0  0  0
  8  9  2  0  0  0  0
  8 11  1  0  0  0  0
  9 10  1  0  0  0  0
  9 31  1  0  0  0  0
 10 32  1  0  0  0  0
 11 12  2  0  0  0  0
 11 13  2  0  0  0  0
 11 14  1  0  0  0  0
 14 15  1  0  0  0  0
 15 20  2  0  0  0  0
 15 16  1  0  0  0  0
 16 17  2  0  0  0  0
 16 33  1  0  0  0  0
 17 18  1  0  0  0  0
 17 25  1  0  0  0  0
 18 19  2  0  0  0  0
 18 24  1  0  0  0  0
 19 20  1  0  0  0  0
 19 34  1  0  0  0  0
 20 21  1  0  0  0  0
 21 22  2  0  0  0  0
 21 23  1  0  0  0  0
M  END
$$$$
ZINC32985021
 OpenBabel01252620473D

 53 56  0  0  0  0  0  0  0  0999 V2000
   -2.7711    0.5990   -0.0655 C   0  0  0  0  0  0  0  0  0  0  0  0
   -2.4919   -0.8971   -0.2227 C   0  0  0  0  0  0  0  0  0  0  0  0
   -1.3431   -1.0826   -1.0522 O   0  0  0  0  0  0  0  0  0  0  0  0
   -0.9566   -2.3640   -1.2940 C   0  0  0  0  0  0  0  0  0  0  0  0
   -1.6730   -3.4187   -0.7481 C   0  0  0  0  0  0  0  0  0  0  0  0
   -1.2812   -4.7202   -0.9931 C   0  0  0  0  0  0  0  0  0  0  0  0
   -0.1697   -4.9727   -1.7863 C   0  0  0  0  0  0  0  0  0  0  0  0
    0.5469   -3.9160   -2.3325 C   0  0  0  0  0  0  0  0  0  0  0  0
    0.1503   -2.6153   -2.0911 C   0  0  0  0  0  0  0  0  0  0  0  0
    0.2282   -6.2911   -2.0348 N   0  0  0  0  0  2  0  0  0  0  0  0
    1.5538   -6.5915   -2.9808 S   0  0  0  0  0  0  0  0  0  0  0  0
    1.2249   -6.1530   -4.2918 O   0  0  0  0  0  0  0  0  0  0  0  0
    2.6802   -6.0944   -2.2714 O   0  0  0  0  0  0  0  0  0  0  0  0
    1.7457   -8.3409   -3.0683 C   0  0  0  0  0  0  0  0  0  0  0  0
    2.4903   -9.1314   -2.1900 C   0  0  0  0  0  0  0  0  0  0  0  0
    2.3466  -10.4280   -2.6522 C   0  0  0  0  0  0  0  0  0  0  0  0
    1.5444  -10.3534   -3.7553 N   0  0  0  0  0  0  0  0  0  0  0  0
    1.2659  -11.1090   -4.2961 H   0  0  0  0  0  0  0  0  0  0  0  0
    1.2111   -9.1307   -3.9644 N   0  0  0  0  0  0  0  0  0  0  0  0
    2.9399  -11.6434   -2.0721 C   0  0  0  0  0  0  0  0  0  0  0  0
    3.9960  -11.5780   -1.4724 O   0  0  0  0  0  0  0  0  0  0  0  0
    2.3129  -12.8290   -2.2053 N   0  0  0  0  0  0  0  0  0  0  0  0
    1.0415  -12.9257   -2.9353 C   0  0  0  0  0  0  0  0  0  0  0  0
    0.0047  -13.6017   -2.0325 C   0  0  0  0  0  0  0  0  0  0  0  0
    0.5564  -14.9423   -1.5434 C   0  0  0  0  0  0  0  0  0  0  0  0
    1.8341  -14.7154   -0.7331 C   0  0  0  0  0  0  0  0  0  0  0  0
    2.8908  -14.0505   -1.6285 C   0  0  0  0  0  0  0  0  0  0  0  0
    0.8416  -15.7845   -2.6672 O   0  0  0  0  0  0  0  0  0  0  0  0
    0.0147  -16.9594   -2.5423 C   0  0  0  0  0  0  0  0  0  0  0  0
   -1.1273  -16.4868   -1.6083 C   0  0  0  0  0  0  0  0  0  0  0  0
   -0.4249  -15.5885   -0.7159 O   0  0  0  0  0  0  0  0  0  0  0  0
   -1.9093    1.0831    0.3938 H   0  0  0  0  0  0  0  0  0  0  0  0
   -2.9557    1.0391   -1.0455 H   0  0  0  0  0  0  0  0  0  0  0  0
   -3.6473    0.7405    0.5672 H   0  0  0  0  0  0  0  0  0  0  0  0
   -2.3073   -1.3372    0.7572 H   0  0  0  0  0  0  0  0  0  0  0  0
   -3.3537   -1.3813   -0.6820 H   0  0  0  0  0  0  0  0  0  0  0  0
   -2.5372   -3.2222   -0.1308 H   0  0  0  0  0  0  0  0  0  0  0  0
   -1.8388   -5.5414   -0.5676 H   0  0  0  0  0  0  0  0  0  0  0  0
    1.4114   -4.1115   -2.9496 H   0  0  0  0  0  0  0  0  0  0  0  0
    0.7047   -1.7935   -2.5197 H   0  0  0  0  0  0  0  0  0  0  0  0
    3.0579   -8.8010   -1.3326 H   0  0  0  0  0  0  0  0  0  0  0  0
    0.6969  -11.9268   -3.2030 H   0  0  0  0  0  0  0  0  0  0  0  0
    1.1827  -13.5199   -3.8381 H   0  0  0  0  0  0  0  0  0  0  0  0
   -0.2052  -12.9606   -1.1763 H   0  0  0  0  0  0  0  0  0  0  0  0
   -0.9134  -13.7698   -2.5954 H   0  0  0  0  0  0  0  0  0  0  0  0
    1.6157  -14.0694    0.1172 H   0  0  0  0  0  0  0  0  0  0  0  0
    2.2127  -15.6729   -0.3753 H   0  0  0  0  0  0  0  0  0  0  0  0
    3.1769  -14.7327   -2.4290 H   0  0  0  0  0  0  0  0  0  0  0  0
    3.7672  -13.7943   -1.0333 H   0  0  0  0  0  0  0  0  0  0  0  0
   -0.3803  -17.2574   -3.5135 H   0  0  0  0  0  0  0  0  0  0  0  0
    0.5729  -17.7765   -2.0852 H   0  0  0  0  0  0  0  0  0  0  0  0
   -1.8964  -15.9565   -2.1699 H   0  0  0  0  0  0  0  0  0  0  0  0
   -1.5554  -17.3259   -1.0599 H   0  0  0  0  0  0  0  0  0  0  0  0
  1  2  1  0  0  0  0
  1 32  1  0  0  0  0
  1 33  1  0  0  0  0
  1 34  1  0  0  0  0
  2  3  1  0  0  0  0
  2 35  1  0  0  0  0
  2 36  1  0  0  0  0
  3  4  1  0  0  0  0
  4  9  2  0  0  0  0
  4  5  1  0  0  0  0
  5  6  2  0  0  0  0
  5 37  1  0  0  0  0
  6  7  1  0  0  0  0
  6 38  1  0  0  0  0
  7  8  2  0  0  0  0
  7 10  1  0  0  0  0
  8  9  1  0  0  0  0
  8 39  1  0  0  0  0
  9 40  1  0  0  0  0
 10 11  1  0  0  0  0
 11 12  2  0  0  0  0
 11 13  2  0  0  0  0
 11 14  1  0  0  0  0
 14 19  2  0  0  0  0
 14 15  1  0  0  0  0
 15 16  2  0  0  0  0
 15 41  1  0  0  0  0
 16 17  1  0  0  0  0
 16 20  1  0  0  0  0
 17 18  1  0  0  0  0
 17 19  1  0  0  0  0
 20 21  2  0  0  0  0
 20 22  1  0  0  0  0
 22 27  1  0  0  0  0
 22 23  1  0  0  0  0
 23 24  1  0  0  0  0
 23 42  1  0  0  0  0
 23 43  1  0  0  0  0
 24 25  1  0  0  0  0
 24 44  1  0  0  0  0
 24 45  1  0  0  0  0
 25 31  1  0  0  0  0
 25 26  1  0  0  0  0
 25 28  1  0  0  0  0
 26 27  1  0  0  0  0
 26 46  1  0  0  0  0
 26 47  1  0  0  0  0
 27 48  1  0  0  0  0
 27 49  1  0  0  0  0
 28 29  1  0  0  0  0
 29 30  1  0  0  0  0
 29 50  1  0  0  0  0
 29 51  1  0  0  0  0
 30 31  1  0  0  0  0
 30 52  1  0  0  0  0
 30 53  1  0  0  0  0
M  END
$$$$
ZINC02154347
 OpenBabel01252620473D

 40 41  0  0  0  0  0  0  0  0999 V2000
   -2.4127    0.9692    2.5122 C   0  0  0  0  0  0  0  0  0  0  0  0
   -2.9676    0.4936    1.1943 C   0  0  0  0  0  0  0  0  0  0  0  0
   -4.0672   -0.4722    1.1458 C   0  0  0  0  0  0  0  0  0  0  0  0
   -4.6328   -0.9799    2.3212 C   0  0  0  0  0  0  0  0  0  0  0  0
   -5.6564   -1.8793    2.2477 C   0  0  0  0  0  0  0  0  0  0  0  0
   -6.1432   -2.2951    1.0097 C   0  0  0  0  0  0  0  0  0  0  0  0
   -5.5956   -1.8027   -0.1634 C   0  0  0  0  0  0  0  0  0  0  0  0
   -4.5544   -0.8884   -0.1071 C   0  0  0  0  0  0  0  0  0  0  0  0
   -4.0070   -0.3952   -1.2386 O   0  0  0  0  0  0  0  0  0  0  0  0
   -3.0022    0.4939   -1.2011 C   0  0  0  0  0  0  0  0  0  0  0  0
   -2.5429    0.9149   -2.2476 O   0  0  0  0  0  0  0  0  0  0  0  0
   -2.4616    0.9495    0.0189 C   0  0  0  0  0  0  0  0  0  0  0  0
   -1.3296    1.9443    0.0189 C   0  0  0  0  0  0  0  0  0  0  0  0
   -0.0144    1.2086    0.0087 C   0  0  0  0  0  0  0  0  0  0  0  0
    0.0021   -0.0041    0.0020 O   0  0  0  0  0  0  0  0  0  0  0  0
    1.1435    1.8983    0.0013 N   0  0  0  0  0  0  0  0  0  0  0  0
    2.4220    1.1832   -0.0147 C   0  0  0  0  0  0  0  0  0  0  0  0
    3.5540    2.1779   -0.0202 C   0  0  0  0  0  0  0  0  0  0  0  0
    3.3163    3.3672   -0.0115 O   0  0  0  0  0  0  0  0  0  0  0  0
    4.8306    1.7460   -0.0347 N   0  0  0  0  0  0  0  0  0  0  0  0
    5.9311    2.7131   -0.0400 C   0  0  0  0  0  0  0  0  0  0  0  0
    7.2462    1.9774   -0.0565 C   0  0  0  0  0  0  0  0  0  0  0  0
    7.2626    0.7693   -0.0632 O   0  0  0  0  0  0  0  0  0  0  0  0
   -7.1620   -3.1904    0.9532 O   0  0  0  0  0  0  0  0  0  0  0  0
   -2.9575    1.8556    2.8371 H   0  0  0  0  0  0  0  0  0  0  0  0
   -2.5221    0.1818    3.2579 H   0  0  0  0  0  0  0  0  0  0  0  0
   -1.3571    1.2143    2.3948 H   0  0  0  0  0  0  0  0  0  0  0  0
   -4.2599   -0.6610    3.2834 H   0  0  0  0  0  0  0  0  0  0  0  0
   -6.0923   -2.2714    3.1547 H   0  0  0  0  0  0  0  0  0  0  0  0
   -5.9784   -2.1295   -1.1189 H   0  0  0  0  0  0  0  0  0  0  0  0
   -1.3916    2.5653    0.9126 H   0  0  0  0  0  0  0  0  0  0  0  0
   -1.4000    2.5749   -0.8673 H   0  0  0  0  0  0  0  0  0  0  0  0
    1.1304    2.8682    0.0067 H   0  0  0  0  0  0  0  0  0  0  0  0
    2.4967    0.5526    0.8712 H   0  0  0  0  0  0  0  0  0  0  0  0
    2.4797    0.5621   -0.9086 H   0  0  0  0  0  0  0  0  0  0  0  0
    5.0208    0.7949   -0.0416 H   0  0  0  0  0  0  0  0  0  0  0  0
    5.8563    3.3437   -0.9259 H   0  0  0  0  0  0  0  0  0  0  0  0
    5.8733    3.3341    0.8539 H   0  0  0  0  0  0  0  0  0  0  0  0
   -6.8738   -4.1132    0.9306 H   0  0  0  0  0  0  0  0  0  0  0  0
    8.3994    2.6643   -0.0638 O   0  0  0  0  0  1  0  0  0  0  0  0
  1  2  1  0  0  0  0
  1 25  1  0  0  0  0
  1 26  1  0  0  0  0
  1 27  1  0  0  0  0
  2 12  2  0  0  0  0
  2  3  1  0  0  0  0
  3  8  2  0  0  0  0
  3  4  1  0  0  0  0
  4  5  2  0  0  0  0
  4 28  1  0  0  0  0
  5  6  1  0  0  0  0
  5 29  1  0  0  0  0
  6  7  2  0  0  0  0
  6 24  1  0  0  0  0
  7  8  1  0  0  0  0
  7 30  1  0  0  0  0
  8  9  1  0  0  0  0
  9 10  1  0  0  0  0
 10 11  2  0  0  0  0
 10 12  1  0  0  0  0
 12 13  1  0  0  0  0
 13 14  1  0  0  0  0
 13 31  1  0  0  0  0
 13 32  1  0  0  0  0
 14 15  2  0  0  0  0
 14 16  1  0  0  0  0
 16 17  1  0  0  0  0
 16 33  1  0  0  0  0
 17 18  1  0  0  0  0
 17 34  1  0  0  0  0
 17 35  1  0  0  0  0
 18 19  2  0  0  0  0
 18 20  1  0  0  0  0
 20 21  1  0  0  0  0
 20 36  1  0  0  0  0
 21 22  1  0  0  0  0
 21 37  1  0  0  0  0
 21 38  1  0  0  0  0
 22 23  2  0  0  0  0
 22 40  1  0  0  0  0
 24 39  1  0  0  0  0
M  END
$$$$
ZINC43511243
 OpenBabel01252620473D

 35 36  0  0  1  0  0  0  0  0999 V2000
    0.8052    0.3258   -0.0040 C   0  0  0  0  0  0  0  0  0  0  0  0
    2.1427    0.6735   -0.0212 C   0  0  0  0  0  0  0  0  0  0  0  0
    3.0806   -0.2535   -0.0240 N   0  0  0  0  0  0  0  0  0  0  0  0
    2.7854   -1.5386   -0.0101 C   0  0  0  0  0  0  0  0  0  0  0  0
    1.4699   -1.9617    0.0079 C   0  0  0  0  0  0  0  0  0  0  0  0
    0.4560   -1.0159    0.0109 C   0  0  0  0  0  0  0  0  0  0  0  0
   -0.9910   -1.4363    0.0305 C   0  0  0  0  0  0  0  0  0  0  0  0
   -1.4968   -1.5904   -1.4053 C   0  0  0  0  0  0  0  0  0  0  0  0
   -3.2386   -2.0964   -1.3818 S   0  0  0  0  0  0  0  0  0  0  0  0
   -3.3499   -3.4482   -0.9582 O   0  0  0  0  0  0  0  0  0  0  0  0
   -4.0349   -1.0822   -0.7847 O   0  0  0  0  0  0  0  0  0  0  0  0
   -3.6985   -2.1129   -2.9726 N   0  0  0  0  0  0  0  0  0  0  0  0
   -2.9555   -2.9225   -3.9415 C   0  0  1  0  0  0  0  0  0  0  0  0
   -2.3653   -4.1323   -3.2184 C   0  0  0  0  0  0  0  0  0  0  0  0
   -3.3630   -5.3235   -3.2582 C   0  0  0  0  0  0  0  0  0  0  0  0
   -3.9993   -5.1344   -4.9815 S   0  0  0  0  0  0  0  0  0  0  0  0
   -3.9014   -3.2995   -5.0984 C   0  0  0  0  0  0  0  0  0  0  0  0
   -1.8238   -2.0945   -4.4934 C   0  0  0  0  0  0  0  0  0  0  0  0
   -1.7314   -0.9150   -4.1990 O   0  0  0  0  0  0  0  0  0  0  0  0
   -1.0005   -2.6042   -5.2343 O   0  0  0  0  0  1  0  0  0  0  0  0
    0.0417    1.0896    0.0023 H   0  0  0  0  0  0  0  0  0  0  0  0
    2.4229    1.7164   -0.0329 H   0  0  0  0  0  0  0  0  0  0  0  0
    3.5810   -2.2690   -0.0133 H   0  0  0  0  0  0  0  0  0  0  0  0
    1.2345   -3.0157    0.0192 H   0  0  0  0  0  0  0  0  0  0  0  0
   -1.0859   -2.3880    0.5532 H   0  0  0  0  0  0  0  0  0  0  0  0
   -1.5826   -0.6788    0.5447 H   0  0  0  0  0  0  0  0  0  0  0  0
   -1.4019   -0.6387   -1.9281 H   0  0  0  0  0  0  0  0  0  0  0  0
   -0.9053   -2.3479   -1.9195 H   0  0  0  0  0  0  0  0  0  0  0  0
   -4.4597   -1.5865   -3.2629 H   0  0  0  0  0  0  0  0  0  0  0  0
   -1.4349   -4.4247   -3.7051 H   0  0  0  0  0  0  0  0  0  0  0  0
   -2.1606   -3.8678   -2.1810 H   0  0  0  0  0  0  0  0  0  0  0  0
   -2.8499   -6.2761   -3.1263 H   0  0  0  0  0  0  0  0  0  0  0  0
   -4.1596   -5.1992   -2.5246 H   0  0  0  0  0  0  0  0  0  0  0  0
   -4.8845   -2.8518   -4.9530 H   0  0  0  0  0  0  0  0  0  0  0  0
   -3.4776   -2.9971   -6.0560 H   0  0  0  0  0  0  0  0  0  0  0  0
  1  6  2  0  0  0  0
  1  2  1  0  0  0  0
  1 21  1  0  0  0  0
  2  3  2  0  0  0  0
  2 22  1  0  0  0  0
  3  4  1  0  0  0  0
  4  5  2  0  0  0  0
  4 23  1  0  0  0  0
  5  6  1  0  0  0  0
  5 24  1  0  0  0  0
  6  7  1  0  0  0  0
  7  8  1  0  0  0  0
  7 25  1  0  0  0  0
  7 26  1  0  0  0  0
  8  9  1  0  0  0  0
  8 27  1  0  0  0  0
  8 28  1  0  0  0  0
  9 10  2  0  0  0  0
  9 11  2  0  0  0  0
  9 12  1  0  0  0  0
 12 13  1  0  0  0  0
 12 29  1  0  0  0  0
 13 17  1  0  0  0  0
 13 14  1  0  0  0  0
 13 18  1  6  0  0  0
 14 15  1  0  0  0  0
 14 30  1  0  0  0  0
 14 31  1  0  0  0  0
 15 16  1  0  0  0  0
 15 32  1  0  0  0  0
 15 33  1  0  0  0  0
 16 17  1  0  0  0  0
 17 34  1  0  0  0  0
 17 35  1  0  0  0  0
 18 19  2  0  0  0  0
 18 20  1  0  0  0  0
M  END
$$$$
ZINC13045394
 OpenBabel01252620473D

 44 46  0  0  0  0  0  0  0  0999 V2000
   -3.9882    1.1719    4.6907 C   0  0  0  0  0  0  0  0  0  0  0  0
   -3.4019    0.6547    3.5710 C   0  0  0  0  0  0  0  0  0  0  0  0
   -2.3753    1.3542    2.9382 C   0  0  0  0  0  0  0  0  0  0  0  0
   -1.9391    2.5969    3.4513 C   0  0  0  0  0  0  0  0  0  0  0  0
   -2.5466    3.1161    4.5976 C   0  0  0  0  0  0  0  0  0  0  0  0
   -3.5680    2.4020    5.2122 C   0  0  0  0  0  0  0  0  0  0  0  0
   -4.2166    2.9452    6.4260 C   0  0  0  0  0  0  0  0  0  0  0  0
   -3.8559    4.0116    6.8816 O   0  0  0  0  0  0  0  0  0  0  0  0
   -0.9408    3.2579    2.8192 N   0  0  0  0  0  0  0  0  0  0  0  0
   -0.3665    2.7703    1.7473 C   0  0  0  0  0  0  0  0  0  0  0  0
   -0.7300    1.5812    1.1829 N   0  0  0  0  0  0  0  0  0  0  0  0
   -1.7165    0.8338    1.7295 C   0  0  0  0  0  0  0  0  0  0  0  0
   -2.0466   -0.2303    1.2397 O   0  0  0  0  0  0  0  0  0  0  0  0
   -0.0422    1.1081   -0.0210 C   0  0  0  0  0  0  0  0  0  0  0  0
   -0.7735    1.6235   -1.2621 C   0  0  0  0  0  0  0  0  0  0  0  0
   -0.6832    3.0488   -1.3106 O   0  0  0  0  0  0  0  0  0  0  0  0
    0.9305    3.6956    0.9947 S   0  0  0  0  0  0  0  0  0  0  0  0
    0.9902    5.1188    2.1115 C   0  0  0  0  0  0  0  0  0  0  0  0
    2.0604    6.0744    1.6506 C   0  0  0  0  0  0  0  0  0  0  0  0
    2.7181    5.8185    0.6642 O   0  0  0  0  0  0  0  0  0  0  0  0
    2.2867    7.2135    2.3346 N   0  0  0  0  0  0  0  0  0  0  0  0
    3.3426    8.0564    1.9621 C   0  0  0  0  0  0  0  0  0  0  0  0
    3.6865    8.1898    0.6239 C   0  0  0  0  0  0  0  0  0  0  0  0
    4.7240    9.0250    0.2569 C   0  0  0  0  0  0  0  0  0  0  0  0
    5.4292    9.7222    1.2229 C   0  0  0  0  0  0  0  0  0  0  0  0
    5.0930    9.5878    2.5612 C   0  0  0  0  0  0  0  0  0  0  0  0
    4.0503    8.7557    2.9327 C   0  0  0  0  0  0  0  0  0  0  0  0
    3.7212    8.6240    4.2363 F   0  0  0  0  0  0  0  0  0  0  0  0
    5.7828   10.2682    3.5028 F   0  0  0  0  0  0  0  0  0  0  0  0
    6.4465   10.5342    0.8611 F   0  0  0  0  0  0  0  0  0  0  0  0
   -4.7832    0.6275    5.1785 H   0  0  0  0  0  0  0  0  0  0  0  0
   -3.7329   -0.2946    3.1764 H   0  0  0  0  0  0  0  0  0  0  0  0
   -2.2253    4.0645    5.0022 H   0  0  0  0  0  0  0  0  0  0  0  0
   -0.0344    0.0181   -0.0303 H   0  0  0  0  0  0  0  0  0  0  0  0
    0.9829    1.4787   -0.0232 H   0  0  0  0  0  0  0  0  0  0  0  0
   -0.3156    1.1998   -2.1558 H   0  0  0  0  0  0  0  0  0  0  0  0
   -1.8215    1.3273   -1.2155 H   0  0  0  0  0  0  0  0  0  0  0  0
   -1.1260    3.4453   -2.0734 H   0  0  0  0  0  0  0  0  0  0  0  0
    0.0248    5.6248    2.1071 H   0  0  0  0  0  0  0  0  0  0  0  0
    1.2174    4.7786    3.1218 H   0  0  0  0  0  0  0  0  0  0  0  0
    1.7189    7.4498    3.0846 H   0  0  0  0  0  0  0  0  0  0  0  0
    3.1405    7.6433   -0.1308 H   0  0  0  0  0  0  0  0  0  0  0  0
    4.9880    9.1311   -0.7850 H   0  0  0  0  0  0  0  0  0  0  0  0
   -5.2070    2.2571    7.0255 O   0  0  0  0  0  1  0  0  0  0  0  0
  1  6  2  0  0  0  0
  1  2  1  0  0  0  0
  1 31  1  0  0  0  0
  2  3  2  0  0  0  0
  2 32  1  0  0  0  0
  3 12  1  0  0  0  0
  3  4  1  0  0  0  0
  4  5  2  0  0  0  0
  4  9  1  0  0  0  0
  5  6  1  0  0  0  0
  5 33  1  0  0  0  0
  6  7  1  0  0  0  0
  7  8  2  0  0  0  0
  7 44  1  0  0  0  0
  9 10  2  0  0  0  0
 10 11  1  0  0  0  0
 10 17  1  0  0  0  0
 11 12  1  0  0  0  0
 11 14  1  0  0  0  0
 12 13  2  0  0  0  0
 14 15  1  0  0  0  0
 14 34  1  0  0  0  0
 14 35  1  0  0  0  0
 15 16  1  0  0  0  0
 15 36  1  0  0  0  0
 15 37  1  0  0  0  0
 16 38  1  0  0  0  0
 17 18  1  0  0  0  0
 18 19  1  0  0  0  0
 18 39  1  0  0  0  0
 18 40  1  0  0  0  0
 19 20  2  0  0  0  0
 19 21  1  0  0  0  0
 21 22  1  0  0  0  0
 21 41  1  0  0  0  0
 22 27  2  0  0  0  0
 22 23  1  0  0  0  0
 23 24  2  0  0  0  0
 23 42  1  0  0  0  0
 24 25  1  0  0  0  0
 24 43  1  0  0  0  0
 25 26  2  0  0  0  0
 25 30  1  0  0  0  0
 26 27  1  0  0  0  0
 26 29  1  0  0  0  0
 27 28  1  0  0  0  0
M  END
$$$$
ZINC20358931
 OpenBabel01252620473D

 38 40  0  0  1  0  0  0  0  0999 V2000
   -0.0167    1.3782    0.0096 C   0  0  0  0  0  0  0  0  0  0  0  0
    1.1706    2.0858    0.0021 C   0  0  0  0  0  0  0  0  0  0  0  0
    2.3780    1.4104   -0.0130 C   0  0  0  0  0  0  0  0  0  0  0  0
    2.3961    0.0270   -0.0206 C   0  0  0  0  0  0  0  0  0  0  0  0
    1.2082   -0.6795   -0.0130 C   0  0  0  0  0  0  0  0  0  0  0  0
    0.0021   -0.0041    0.0020 C   0  0  0  0  0  0  0  0  0  0  0  0
   -1.2928   -0.7750    0.0107 C   0  0  2  0  0  0  0  0  0  0  0  0
   -2.1322   -0.0797    0.0227 H   0  0  0  0  0  0  0  0  0  0  0  0
   -1.3494   -1.6702    1.2518 C   0  0  0  0  0  0  0  0  0  0  0  0
   -0.4709   -2.8789    1.0902 C   0  0  0  0  0  0  0  0  0  0  0  0
    0.1173   -3.3159    2.0565 O   0  0  0  0  0  0  0  0  0  0  0  0
   -0.3206   -3.4911   -0.1055 N   0  0  0  0  0  0  0  0  0  0  0  0
   -0.9076   -2.8950   -1.2150 C   0  0  0  0  0  0  0  0  0  0  0  0
   -1.3704   -1.6169   -1.1819 N   0  0  0  0  0  0  0  0  0  0  0  0
   -1.8880   -1.3387   -2.4444 N   0  0  0  0  0  0  0  0  0  0  0  0
   -1.7238   -2.4252   -3.1673 C   0  0  0  0  0  0  0  0  0  0  0  0
   -1.1265   -3.3701   -2.4101 N   0  0  0  0  0  0  0  0  0  0  0  0
   -2.1074   -2.5768   -4.5035 N   0  0  0  0  0  0  0  0  0  0  0  0
   -1.8851   -3.7437   -5.1402 C   0  0  0  0  0  0  0  0  0  0  0  0
   -1.3523   -4.6623   -4.5542 O   0  0  0  0  0  0  0  0  0  0  0  0
   -2.2985   -3.9071   -6.5801 C   0  0  0  0  0  0  0  0  0  0  0  0
   -1.9352   -5.3142   -7.0585 C   0  0  0  0  0  0  0  0  0  0  0  0
   -2.3486   -5.4776   -8.4985 C   0  0  0  0  0  0  0  0  0  0  0  0
   -2.8841   -4.5542   -9.0875 O   0  0  0  0  0  0  0  0  0  0  0  0
   -2.1474   -6.5332   -9.0744 O   0  0  0  0  0  1  0  0  0  0  0  0
    3.8696    2.2984   -0.0231 Cl  0  0  0  0  0  0  0  0  0  0  0  0
   -0.9592    1.9053    0.0259 H   0  0  0  0  0  0  0  0  0  0  0  0
    1.1558    3.1656    0.0076 H   0  0  0  0  0  0  0  0  0  0  0  0
    3.3383   -0.5007   -0.0327 H   0  0  0  0  0  0  0  0  0  0  0  0
    1.2222   -1.7594   -0.0193 H   0  0  0  0  0  0  0  0  0  0  0  0
   -1.0167   -1.1001    2.1192 H   0  0  0  0  0  0  0  0  0  0  0  0
   -2.3776   -1.9947    1.4118 H   0  0  0  0  0  0  0  0  0  0  0  0
    0.1802   -4.3179   -0.1863 H   0  0  0  0  0  0  0  0  0  0  0  0
   -2.5335   -1.8421   -4.9721 H   0  0  0  0  0  0  0  0  0  0  0  0
   -3.3749   -3.7601   -6.6680 H   0  0  0  0  0  0  0  0  0  0  0  0
   -1.7798   -3.1698   -7.1929 H   0  0  0  0  0  0  0  0  0  0  0  0
   -0.8587   -5.4612   -6.9706 H   0  0  0  0  0  0  0  0  0  0  0  0
   -2.4538   -6.0515   -6.4457 H   0  0  0  0  0  0  0  0  0  0  0  0
  1  6  2  0  0  0  0
  1  2  1  0  0  0  0
  1 27  1  0  0  0  0
  2  3  2  0  0  0  0
  2 28  1  0  0  0  0
  3  4  1  0  0  0  0
  3 26  1  0  0  0  0
  4  5  2  0  0  0  0
  4 29  1  0  0  0  0
  5  6  1  0  0  0  0
  5 30  1  0  0  0  0
  6  7  1  0  0  0  0
  7  8  1  1  0  0  0
  7 14  1  0  0  0  0
  7  9  1  0  0  0  0
  9 10  1  0  0  0  0
  9 31  1  0  0  0  0
  9 32  1  0  0  0  0
 10 11  2  0  0  0  0
 10 12  1  0  0  0  0
 12 13  1  0  0  0  0
 12 33  1  0  0  0  0
 13 17  2  0  0  0  0
 13 14  1  0  0  0  0
 14 15  1  0  0  0  0
 15 16  2  0  0  0  0
 16 17  1  0  0  0  0
 16 18  1  0  0  0  0
 18 19  1  0  0  0  0
 18 34  1  0  0  0  0
 19 20  2  0  0  0  0
 19 21  1  0  0  0  0
 21 22  1  0  0  0  0
 21 35  1  0  0  0  0
 21 36  1  0  0  0  0
 22 23  1  0  0  0  0
 22 37  1  0  0  0  0
 22 38  1  0  0  0  0
 23 24  2  0  0  0  0
 23 25  1  0  0  0  0
M  END
$$$$
ZINC65060302
 OpenBabel01252620473D

 42 44  0  0  0  0  0  0  0  0999 V2000
   -0.0187    1.5258    0.0104 C   0  0  0  0  0  0  0  0  0  0  0  0
    0.0021   -0.0041    0.0020 C   0  0  0  0  0  0  0  0  0  0  0  0
   -1.3386   -0.4987    0.0122 O   0  0  0  0  0  0  0  0  0  0  0  0
   -1.4983   -1.8484    0.0064 C   0  0  0  0  0  0  0  0  0  0  0  0
   -0.3850   -2.6777   -0.0028 C   0  0  0  0  0  0  0  0  0  0  0  0
   -0.5439   -4.0476   -0.0082 C   0  0  0  0  0  0  0  0  0  0  0  0
   -1.8240   -4.5994   -0.0043 C   0  0  0  0  0  0  0  0  0  0  0  0
   -2.9396   -3.7643    0.0050 C   0  0  0  0  0  0  0  0  0  0  0  0
   -2.7741   -2.3947    0.0157 C   0  0  0  0  0  0  0  0  0  0  0  0
   -4.1839   -1.3380    0.0348 S   0  0  0  0  0  0  0  0  0  0  0  0
   -3.9813   -0.3720   -0.9875 O   0  0  0  0  0  0  0  0  0  0  0  0
   -5.3251   -2.1840    0.0683 O   0  0  0  0  0  0  0  0  0  0  0  0
   -4.1610   -0.5171    1.4728 N   0  0  0  0  0  2  0  0  0  0  0  0
   -5.1713    0.4044    1.7684 C   0  0  0  0  0  0  0  0  0  0  0  0
   -6.1968    0.6274    0.8593 C   0  0  0  0  0  0  0  0  0  0  0  0
   -7.1933    1.5377    1.1530 C   0  0  0  0  0  0  0  0  0  0  0  0
   -7.1704    2.2284    2.3529 C   0  0  0  0  0  0  0  0  0  0  0  0
   -6.1492    2.0083    3.2615 C   0  0  0  0  0  0  0  0  0  0  0  0
   -5.1531    1.0939    2.9747 C   0  0  0  0  0  0  0  0  0  0  0  0
   -3.8766    0.8127    4.1171 Cl  0  0  0  0  0  0  0  0  0  0  0  0
   -8.1459    3.1188    2.6373 F   0  0  0  0  0  0  0  0  0  0  0  0
   -1.9984   -6.0728   -0.0106 C   0  0  0  0  0  0  0  0  0  0  0  0
   -0.9313   -6.9250    0.0866 C   0  0  0  0  0  0  0  0  0  0  0  0
   -1.7636   -8.5034    0.0249 S   0  0  0  0  0  0  0  0  0  0  0  0
   -3.3403   -7.9325   -0.1143 C   0  0  0  0  0  0  0  0  0  0  0  0
   -3.1958   -6.6329   -0.1049 N   0  0  0  0  0  0  0  0  0  0  0  0
   -4.6153   -8.7290   -0.2190 C   0  0  0  0  0  0  0  0  0  0  0  0
    1.0039    1.9031    0.0027 H   0  0  0  0  0  0  0  0  0  0  0  0
   -0.5459    1.8868   -0.8726 H   0  0  0  0  0  0  0  0  0  0  0  0
   -0.5289    1.8773    0.9072 H   0  0  0  0  0  0  0  0  0  0  0  0
    0.5123   -0.3556   -0.8948 H   0  0  0  0  0  0  0  0  0  0  0  0
    0.5293   -0.3651    0.8851 H   0  0  0  0  0  0  0  0  0  0  0  0
    0.6065   -2.2496   -0.0062 H   0  0  0  0  0  0  0  0  0  0  0  0
    0.3226   -4.6923   -0.0158 H   0  0  0  0  0  0  0  0  0  0  0  0
   -3.9326   -4.1888    0.0077 H   0  0  0  0  0  0  0  0  0  0  0  0
   -6.2151    0.0896   -0.0771 H   0  0  0  0  0  0  0  0  0  0  0  0
   -7.9910    1.7111    0.4459 H   0  0  0  0  0  0  0  0  0  0  0  0
   -6.1333    2.5482    4.1968 H   0  0  0  0  0  0  0  0  0  0  0  0
    0.1220   -6.7038    0.1758 H   0  0  0  0  0  0  0  0  0  0  0  0
   -4.3821   -9.7934   -0.1918 H   0  0  0  0  0  0  0  0  0  0  0  0
   -5.2695   -8.4789    0.6162 H   0  0  0  0  0  0  0  0  0  0  0  0
   -5.1166   -8.4907   -1.1571 H   0  0  0  0  0  0  0  0  0  0  0  0
  1  2  1  0  0  0  0
  1 28  1  0  0  0  0
  1 29  1  0  0  0  0
  1 30  1  0  0  0  0
  2  3  1  0  0  0  0
  2 31  1  0  0  0  0
  2 32  1  0  0  0  0
  3  4  1  0  0  0  0
  4  9  2  0  0  0  0
  4  5  1  0  0  0  0
  5  6  2  0  0  0  0
  5 33  1  0  0  0  0
  6  7  1  0  0  0  0
  6 34  1  0  0  0  0
  7  8  2  0  0  0  0
  7 22  1  0  0  0  0
  8  9  1  0  0  0  0
  8 35  1  0  0  0  0
  9 10  1  0  0  0  0
 10 11  2  0  0  0  0
 10 12  2  0  0  0  0
 10 13  1  0  0  0  0
 13 14  1  0  0  0  0
 14 19  2  0  0  0  0
 14 15  1  0  0  0  0
 15 16  2  0  0  0  0
 15 36  1  0  0  0  0
 16 17  1  0  0  0  0
 16 37  1  0  0  0  0
 17 18  2  0  0  0  0
 17 21  1  0  0  0  0
 18 19  1  0  0  0  0
 18 38  1  0  0  0  0
 19 20  1  0  0  0  0
 22 26  1  0  0  0  0
 22 23  2  0  0  0  0
 23 24  1  0  0  0  0
 23 39  1  0  0  0  0
 24 25  1  0  0  0  0
 25 26  2  0  0  0  0
 25 27  1  0  0  0  0
 27 40  1  0  0  0  0
 27 41  1  0  0  0  0
 27 42  1  0  0  0  0
M  END
$$$$
ZINC43510093
 OpenBabel01252620473D

 37 38  0  0  1  0  0  0  0  0999 V2000
   -0.0052    1.5029    0.0090 C   0  0  0  0  0  0  0  0  0  0  0  0
    0.0080   -0.0040    0.0014 C   0  0  0  0  0  0  0  0  0  0  0  0
   -0.0930   -0.7199   -1.1978 C   0  0  0  0  0  0  0  0  0  0  0  0
   -0.0807   -2.0251   -1.1954 N   0  0  0  0  0  0  0  0  0  0  0  0
    0.0225   -2.7205   -0.1225 N   0  0  0  0  0  0  0  0  0  0  0  0
    0.1261   -2.1464    1.0914 C   0  0  0  0  0  0  0  0  0  0  0  0
    0.2228   -2.8333    2.0938 O   0  0  0  0  0  0  0  0  0  0  0  0
    0.1270   -0.7263    1.1868 C   0  0  0  0  0  0  0  0  0  0  0  0
    0.2440   -0.0464    2.4895 C   0  0  0  0  0  0  0  0  0  0  0  0
    0.1412    1.1636    2.5552 O   0  0  0  0  0  0  0  0  0  0  0  0
    0.4649   -0.7656    3.6077 N   0  0  0  0  0  0  0  0  0  0  0  0
    0.4719   -0.1041    4.9148 C   0  0  2  0  0  0  0  0  0  0  0  0
    0.7924   -1.1369    6.0080 C   0  0  0  0  0  0  0  0  0  0  0  0
   -0.4523   -2.0517    6.1899 C   0  0  0  0  0  0  0  0  0  0  0  0
   -1.8055   -0.8064    6.0761 S   0  0  0  0  0  0  0  0  0  0  0  0
   -0.9158    0.5291    5.1776 C   0  0  0  0  0  0  0  0  0  0  0  0
    1.5239    0.9749    4.9236 C   0  0  0  0  0  0  0  0  0  0  0  0
    2.2122    1.1633    3.9351 O   0  0  0  0  0  0  0  0  0  0  0  0
    1.6868    1.6594    5.9193 O   0  0  0  0  0  1  0  0  0  0  0  0
    0.0272   -4.1822   -0.2203 C   0  0  0  0  0  0  0  0  0  0  0  0
   -0.2175    0.0232   -2.5029 C   0  0  0  0  0  0  0  0  0  0  0  0
    1.0192    1.8752    0.0152 H   0  0  0  0  0  0  0  0  0  0  0  0
   -0.5185    1.8662   -0.8813 H   0  0  0  0  0  0  0  0  0  0  0  0
   -0.5259    1.8572    0.8986 H   0  0  0  0  0  0  0  0  0  0  0  0
    0.6192   -1.7214    3.5470 H   0  0  0  0  0  0  0  0  0  0  0  0
    1.6502   -1.7380    5.7064 H   0  0  0  0  0  0  0  0  0  0  0  0
    1.0132   -0.6250    6.9446 H   0  0  0  0  0  0  0  0  0  0  0  0
   -0.5231   -2.7853    5.3868 H   0  0  0  0  0  0  0  0  0  0  0  0
   -0.4450   -2.5378    7.1655 H   0  0  0  0  0  0  0  0  0  0  0  0
   -0.8229    1.4187    5.8006 H   0  0  0  0  0  0  0  0  0  0  0  0
   -1.4174    0.7641    4.2389 H   0  0  0  0  0  0  0  0  0  0  0  0
   -0.0644   -4.4767   -1.2658 H   0  0  0  0  0  0  0  0  0  0  0  0
    0.9610   -4.5706    0.1861 H   0  0  0  0  0  0  0  0  0  0  0  0
   -0.8117   -4.5870    0.3459 H   0  0  0  0  0  0  0  0  0  0  0  0
    0.7760    0.2122   -2.9096 H   0  0  0  0  0  0  0  0  0  0  0  0
   -0.7912   -0.5767   -3.2093 H   0  0  0  0  0  0  0  0  0  0  0  0
   -0.7273    0.9717   -2.3337 H   0  0  0  0  0  0  0  0  0  0  0  0
  1  2  1  0  0  0  0
  1 22  1  0  0  0  0
  1 23  1  0  0  0  0
  1 24  1  0  0  0  0
  2  8  2  0  0  0  0
  2  3  1  0  0  0  0
  3  4  2  0  0  0  0
  3 21  1  0  0  0  0
  4  5  1  0  0  0  0
  5  6  1  0  0  0  0
  5 20  1  0  0  0  0
  6  7  2  0  0  0  0
  6  8  1  0  0  0  0
  8  9  1  0  0  0  0
  9 10  2  0  0  0  0
  9 11  1  0  0  0  0
 11 12  1  0  0  0  0
 11 25  1  0  0  0  0
 12 16  1  0  0  0  0
 12 13  1  0  0  0  0
 12 17  1  1  0  0  0
 13 14  1  0  0  0  0
 13 26  1  0  0  0  0
 13 27  1  0  0  0  0
 14 15  1  0  0  0  0
 14 28  1  0  0  0  0
 14 29  1  0  0  0  0
 15 16  1  0  0  0  0
 16 30  1  0  0  0  0
 16 31  1  0  0  0  0
 17 18  2  0  0  0  0
 17 19  1  0  0  0  0
 20 32  1  0  0  0  0
 20 33  1  0  0  0  0
 20 34  1  0  0  0  0
 21 35  1  0  0  0  0
 21 36  1  0  0  0  0
 21 37  1  0  0  0  0
M  END
$$$$
ZINC39482668
 OpenBabel01252620473D

 55 57  0  0  1  0  0  0  0  0999 V2000
   -0.0187    1.5258    0.0104 C   0  0  0  0  0  0  0  0  0  0  0  0
    0.0021   -0.0041    0.0020 C   0  0  0  0  0  0  0  0  0  0  0  0
    0.7421   -0.5109    1.2415 C   0  0  0  0  0  0  0  0  0  0  0  0
   -1.6997   -0.6320    0.0149 S   0  0  0  0  0  0  0  0  0  0  0  0
   -2.3591   -0.2345    1.2093 O   0  0  0  0  0  0  0  0  0  0  0  0
   -2.3081   -0.4232   -1.2522 O   0  0  0  0  0  0  0  0  0  0  0  0
   -1.5093   -2.6668    0.1748 S   0  0  0  0  0  0  0  0  0  0  0  0
   -0.8976   -3.1132   -1.0275 O   0  0  0  0  0  0  0  0  0  0  0  0
   -0.9490   -2.9229    1.4553 O   0  0  0  0  0  0  0  0  0  0  0  0
   -3.0386   -3.3019    0.1918 N   0  0  0  0  0  2  0  0  0  0  0  0
   -3.2207   -4.6864    0.2942 C   0  0  0  0  0  0  0  0  0  0  0  0
   -2.1219   -5.5271    0.3872 C   0  0  0  0  0  0  0  0  0  0  0  0
   -2.3040   -6.8940    0.4887 C   0  0  0  0  0  0  0  0  0  0  0  0
   -3.5798   -7.4267    0.4978 C   0  0  0  0  0  0  0  0  0  0  0  0
   -4.6810   -6.5957    0.4055 C   0  0  0  0  0  0  0  0  0  0  0  0
   -4.5078   -5.2234    0.3087 C   0  0  0  0  0  0  0  0  0  0  0  0
   -5.6217   -4.3795    0.2205 N   0  0  0  0  0  0  0  0  0  0  0  0
   -6.1996   -4.0264   -1.0851 C   0  0  0  0  0  0  0  0  0  0  0  0
   -6.3353   -2.5019   -1.1610 C   0  0  0  0  0  0  0  0  0  0  0  0
   -7.0917   -2.0222    0.0034 N   0  0  0  0  0  0  0  0  0  0  0  0
   -6.3786   -2.3063    1.2559 C   0  0  2  0  0  0  0  0  0  0  0  0
   -5.3869   -1.8553    1.2202 H   0  0  0  0  0  0  0  0  0  0  0  0
   -6.2484   -3.8277    1.4312 C   0  0  0  0  0  0  0  0  0  0  0  0
   -7.3025   -1.6192    2.6434 Cl  0  0  0  0  0  0  0  0  0  0  0  0
   -3.8030   -9.1698    0.6268 S   0  0  0  0  0  0  0  0  0  0  0  0
   -5.0756   -9.4590    0.0646 O   0  0  0  0  0  0  0  0  0  0  0  0
   -2.6057   -9.7689    0.1506 O   0  0  0  0  0  0  0  0  0  0  0  0
   -3.9111   -9.5555    2.3427 C   0  0  0  0  0  0  0  0  0  0  0  0
   -2.7658   -9.8503    3.0584 C   0  0  0  0  0  0  0  0  0  0  0  0
   -2.8506  -10.1529    4.4045 C   0  0  0  0  0  0  0  0  0  0  0  0
   -4.0808  -10.1603    5.0351 C   0  0  0  0  0  0  0  0  0  0  0  0
   -5.2260   -9.8647    4.3196 C   0  0  0  0  0  0  0  0  0  0  0  0
   -5.1407   -9.5579    2.9744 C   0  0  0  0  0  0  0  0  0  0  0  0
    1.0039    1.9031    0.0027 H   0  0  0  0  0  0  0  0  0  0  0  0
   -0.5459    1.8868   -0.8726 H   0  0  0  0  0  0  0  0  0  0  0  0
   -0.5289    1.8773    0.9072 H   0  0  0  0  0  0  0  0  0  0  0  0
    0.5123   -0.3556   -0.8948 H   0  0  0  0  0  0  0  0  0  0  0  0
    0.2319   -0.1594    2.1383 H   0  0  0  0  0  0  0  0  0  0  0  0
    0.7568   -1.6008    1.2356 H   0  0  0  0  0  0  0  0  0  0  0  0
    1.7647   -0.1336    1.2338 H   0  0  0  0  0  0  0  0  0  0  0  0
   -1.1240   -5.1144    0.3801 H   0  0  0  0  0  0  0  0  0  0  0  0
   -1.4472   -7.5475    0.5607 H   0  0  0  0  0  0  0  0  0  0  0  0
   -5.6762   -7.0152    0.4125 H   0  0  0  0  0  0  0  0  0  0  0  0
   -5.5437   -4.3758   -1.8825 H   0  0  0  0  0  0  0  0  0  0  0  0
   -7.1823   -4.4870   -1.1872 H   0  0  0  0  0  0  0  0  0  0  0  0
   -5.3442   -2.0482   -1.1630 H   0  0  0  0  0  0  0  0  0  0  0  0
   -6.8627   -2.2287   -2.0750 H   0  0  0  0  0  0  0  0  0  0  0  0
   -7.2981   -1.0381   -0.0800 H   0  0  0  0  0  0  0  0  0  0  0  0
   -7.2357   -4.2696    1.5663 H   0  0  0  0  0  0  0  0  0  0  0  0
   -5.6248   -4.0457    2.2982 H   0  0  0  0  0  0  0  0  0  0  0  0
   -1.8047   -9.8444    2.5657 H   0  0  0  0  0  0  0  0  0  0  0  0
   -1.9559  -10.3839    4.9635 H   0  0  0  0  0  0  0  0  0  0  0  0
   -4.1471  -10.3975    6.0866 H   0  0  0  0  0  0  0  0  0  0  0  0
   -6.1871   -9.8709    4.8122 H   0  0  0  0  0  0  0  0  0  0  0  0
   -6.0350   -9.3233    2.4163 H   0  0  0  0  0  0  0  0  0  0  0  0
  1  2  1  0  0  0  0
  1 34  1  0  0  0  0
  1 35  1  0  0  0  0
  1 36  1  0  0  0  0
  2  3  1  0  0  0  0
  2  4  1  0  0  0  0
  2 37  1  0  0  0  0
  3 38  1  0  0  0  0
  3 39  1  0  0  0  0
  3 40  1  0  0  0  0
  4  5  2  0  0  0  0
  4  6  2  0  0  0  0
  4  7  1  0  0  0  0
  7  8  2  0  0  0  0
  7  9  2  0  0  0  0
  7 10  1  0  0  0  0
 10 11  1  0  0  0  0
 11 16  2  0  0  0  0
 11 12  1  0  0  0  0
 12 13  2  0  0  0  0
 12 41  1  0  0  0  0
 13 14  1  0  0  0  0
 13 42  1  0  0  0  0
 14 15  2  0  0  0  0
 14 25  1  0  0  0  0
 15 16  1  0  0  0  0
 15 43  1  0  0  0  0
 16 17  1  0  0  0  0
 17 23  1  0  0  0  0
 17 18  1  0  0  0  0
 18 19  1  0  0  0  0
 18 44  1  0  0  0  0
 18 45  1  0  0  0  0
 19 20  1  0  0  0  0
 19 46  1  0  0  0  0
 19 47  1  0  0  0  0
 20 21  1  0  0  0  0
 20 48  1  0  0  0  0
 21 22  1  6  0  0  0
 21 23  1  0  0  0  0
 21 24  1  0  0  0  0
 23 49  1  0  0  0  0
 23 50  1  0  0  0  0
 25 26  2  0  0  0  0
 25 27  2  0  0  0  0
 25 28  1  0  0  0  0
 28 33  2  0  0  0  0
 28 29  1  0  0  0  0
 29 30  2  0  0  0  0
 29 51  1  0  0  0  0
 30 31  1  0  0  0  0
 30 52  1  0  0  0  0
 31 32  2  0  0  0  0
 31 53  1  0  0  0  0
 32 33  1  0  0  0  0
 32 54  1  0  0  0  0
 33 55  1  0  0  0  0
M  END
$$$$
ZINC43763987
 OpenBabel01252620473D

 57 59  0  0  1  0  0  0  0  0999 V2000
   -0.0184    1.5028    0.0103 C   0  0  0  0  0  0  0  0  0  0  0  0
    0.0021   -0.0041    0.0020 C   0  0  0  0  0  0  0  0  0  0  0  0
    0.0061   -0.6954   -1.1674 C   0  0  0  0  0  0  0  0  0  0  0  0
    0.0259   -2.1051   -1.1488 C   0  0  0  0  0  0  0  0  0  0  0  0
    0.0297   -2.7124   -2.2045 O   0  0  0  0  0  0  0  0  0  0  0  0
    0.0411   -2.7950    0.0025 O   0  0  0  0  0  0  0  0  0  0  0  0
    0.0380   -2.1693    1.1991 C   0  0  0  0  0  0  0  0  0  0  0  0
    0.0243   -0.7629    1.2543 C   0  0  0  0  0  0  0  0  0  0  0  0
    0.0261   -0.1105    2.4922 C   0  0  0  0  0  0  0  0  0  0  0  0
    0.0465   -0.8421    3.6444 C   0  0  0  0  0  0  0  0  0  0  0  0
    0.0655   -2.2344    3.5961 C   0  0  0  0  0  0  0  0  0  0  0  0
    0.0533   -2.8969    2.3791 C   0  0  0  0  0  0  0  0  0  0  0  0
    0.0862   -2.9478    4.7507 O   0  0  0  0  0  0  0  0  0  0  0  0
    0.0871   -2.2057    5.9719 C   0  0  2  0  0  0  0  0  0  0  0  0
    0.1101   -3.1739    7.1576 C   0  0  0  0  0  0  0  0  0  0  0  0
   -1.1610   -4.0283    7.1339 C   0  0  1  0  0  0  0  0  0  0  0  0
   -1.1779   -4.6811    8.0066 H   0  0  0  0  0  0  0  0  0  0  0  0
   -2.3836   -3.1059    7.1602 C   0  0  2  0  0  0  0  0  0  0  0  0
   -3.2924   -3.7034    7.0878 H   0  0  0  0  0  0  0  0  0  0  0  0
   -2.3103   -2.1404    5.9744 C   0  0  2  0  0  0  0  0  0  0  0  0
   -2.3424   -2.7056    5.0429 H   0  0  0  0  0  0  0  0  0  0  0  0
   -1.0905   -1.3990    6.0402 O   0  0  0  0  0  0  0  0  0  0  0  0
   -3.4972   -1.1763    6.0273 C   0  0  1  0  0  0  0  0  0  0  0  0
   -3.4647   -0.6109    6.9586 H   0  0  0  0  0  0  0  0  0  0  0  0
   -3.4237   -0.2115    4.8421 C   0  0  2  0  0  0  0  0  0  0  0  0
   -2.5378    0.4162    4.9389 H   0  0  0  0  0  0  0  0  0  0  0  0
   -4.6739    0.6703    4.8241 C   0  0  0  0  0  0  0  0  0  0  0  0
   -4.5524    1.6479    3.7889 O   0  0  0  0  0  0  0  0  0  0  0  0
   -3.3488   -0.9567    3.6251 O   0  0  0  0  0  0  0  0  0  0  0  0
   -4.7168   -1.9182    5.9627 O   0  0  0  0  0  0  0  0  0  0  0  0
   -2.3963   -2.3454    8.4123 N   0  0  0  0  0  0  0  0  0  0  0  0
   -2.9402   -2.8832    9.5219 C   0  0  0  0  0  0  0  0  0  0  0  0
   -3.4192   -3.9968    9.4840 O   0  0  0  0  0  0  0  0  0  0  0  0
   -2.9532   -2.1009   10.8099 C   0  0  0  0  0  0  0  0  0  0  0  0
   -1.1828   -4.8199    5.9444 O   0  0  0  0  0  0  0  0  0  0  0  0
    1.3060   -1.3210    6.0215 C   0  0  0  0  0  0  0  0  0  0  0  0
    2.0520   -1.2566    5.0593 O   0  0  0  0  0  0  0  0  0  0  0  0
    1.5461   -0.6696    7.0237 O   0  0  0  0  0  1  0  0  0  0  0  0
    1.0042    1.8801    0.0026 H   0  0  0  0  0  0  0  0  0  0  0  0
   -0.5455    1.8639   -0.8728 H   0  0  0  0  0  0  0  0  0  0  0  0
   -0.5286    1.8543    0.9071 H   0  0  0  0  0  0  0  0  0  0  0  0
   -0.0061   -0.1665   -2.1090 H   0  0  0  0  0  0  0  0  0  0  0  0
    0.0118    0.9686    2.5359 H   0  0  0  0  0  0  0  0  0  0  0  0
    0.0483   -0.3384    4.5997 H   0  0  0  0  0  0  0  0  0  0  0  0
    0.0678   -3.9764    2.3498 H   0  0  0  0  0  0  0  0  0  0  0  0
    0.9848   -3.8200    7.0834 H   0  0  0  0  0  0  0  0  0  0  0  0
    0.1517   -2.6086    8.0887 H   0  0  0  0  0  0  0  0  0  0  0  0
   -5.5521    0.0518    4.6384 H   0  0  0  0  0  0  0  0  0  0  0  0
   -4.7792    1.1712    5.7864 H   0  0  0  0  0  0  0  0  0  0  0  0
   -5.3112    2.2433    3.7192 H   0  0  0  0  0  0  0  0  0  0  0  0
   -4.1061   -1.5385    3.4730 H   0  0  0  0  0  0  0  0  0  0  0  0
   -4.8138   -2.4462    5.1584 H   0  0  0  0  0  0  0  0  0  0  0  0
   -2.0132   -1.4548    8.4427 H   0  0  0  0  0  0  0  0  0  0  0  0
   -2.4826   -1.1308   10.6505 H   0  0  0  0  0  0  0  0  0  0  0  0
   -3.9830   -1.9559   11.1366 H   0  0  0  0  0  0  0  0  0  0  0  0
   -2.4035   -2.6502   11.5742 H   0  0  0  0  0  0  0  0  0  0  0  0
   -0.4322   -5.4237    5.8600 H   0  0  0  0  0  0  0  0  0  0  0  0
  1  2  1  0  0  0  0
  1 39  1  0  0  0  0
  1 40  1  0  0  0  0
  1 41  1  0  0  0  0
  2  8  1  0  0  0  0
  2  3  2  0  0  0  0
  3  4  1  0  0  0  0
  3 42  1  0  0  0  0
  4  5  2  0  0  0  0
  4  6  1  0  0  0  0
  6  7  1  0  0  0  0
  7 12  2  0  0  0  0
  7  8  1  0  0  0  0
  8  9  2  0  0  0  0
  9 10  1  0  0  0  0
  9 43  1  0  0  0  0
 10 11  2  0  0  0  0
 10 44  1  0  0  0  0
 11 12  1  0  0  0  0
 11 13  1  0  0  0  0
 12 45  1  0  0  0  0
 14 13  1  6  0  0  0
 14 22  1  0  0  0  0
 14 15  1  0  0  0  0
 14 36  1  0  0  0  0
 15 16  1  0  0  0  0
 15 46  1  0  0  0  0
 15 47  1  0  0  0  0
 16 17  1  1  0  0  0
 16 18  1  0  0  0  0
 16 35  1  0  0  0  0
 18 19  1  6  0  0  0
 18 20  1  0  0  0  0
 18 31  1  0  0  0  0
 20 21  1  6  0  0  0
 20 22  1  0  0  0  0
 20 23  1  0  0  0  0
 23 24  1  1  0  0  0
 23 25  1  0  0  0  0
 23 30  1  0  0  0  0
 25 26  1  1  0  0  0
 25 27  1  0  0  0  0
 25 29  1  0  0  0  0
 27 28  1  0  0  0  0
 27 48  1  0  0  0  0
 27 49  1  0  0  0  0
 28 50  1  0  0  0  0
 29 51  1  0  0  0  0
 30 52  1  0  0  0  0
 31 32  1  0  0  0  0
 31 53  1  0  0  0  0
 32 33  2  0  0  0  0
 32 34  1  0  0  0  0
 34 54  1  0  0  0  0
 34 55  1  0  0  0  0
 34 56  1  0  0  0  0
 35 57  1  0  0  0  0
 36 37  2  0  0  0  0
 36 38  1  0  0  0  0
M  END
$$$$
ZINC13259675
 OpenBabel01252620473D

 57 59  0  0  0  0  0  0  0  0999 V2000
    4.4338   -1.7883    0.9312 C   0  0  0  0  0  0  0  0  0  0  0  0
    3.8555   -0.4200    0.6774 C   0  0  0  0  0  0  0  0  0  0  0  0
    4.5759    0.7484    0.5440 C   0  0  0  0  0  0  0  0  0  0  0  0
    3.6302    1.7798    0.3177 C   0  0  0  0  0  0  0  0  0  0  0  0
    2.4003    1.1893    0.3258 C   0  0  0  0  0  0  0  0  0  0  0  0
    2.5574   -0.1316    0.5487 O   0  0  0  0  0  0  0  0  0  0  0  0
    1.1625    1.8545    0.1373 C   0  0  0  0  0  0  0  0  0  0  0  0
    0.0041    1.1519    0.1677 C   0  0  0  0  0  0  0  0  0  0  0  0
   -1.2321    1.8155   -0.0264 C   0  0  0  0  0  0  0  0  0  0  0  0
   -1.2543    3.0187   -0.2158 O   0  0  0  0  0  0  0  0  0  0  0  0
   -2.3837    1.1158   -0.0016 N   0  0  0  0  0  0  0  0  0  0  0  0
   -2.3519   -0.3429    0.1306 C   0  0  0  0  0  0  0  0  0  0  0  0
   -2.2524   -0.7188    1.6103 C   0  0  0  0  0  0  0  0  0  0  0  0
   -3.4399   -0.3036    2.2882 O   0  0  0  0  0  0  0  0  0  0  0  0
   -3.4493   -0.6090    3.6841 C   0  0  0  0  0  0  0  0  0  0  0  0
   -3.6194    1.7879   -0.1030 C   0  0  0  0  0  0  0  0  0  0  0  0
   -3.9982    2.7086    0.8528 C   0  0  0  0  0  0  0  0  0  0  0  0
   -5.2078    3.3510    0.7242 N   0  0  0  0  0  0  0  0  0  0  0  0
   -6.0163    3.0781   -0.3160 C   0  0  0  0  0  0  0  0  0  0  0  0
   -7.0834    3.6536   -0.4094 O   0  0  0  0  0  0  0  0  0  0  0  0
   -5.6662    2.1804   -1.2541 N   0  0  0  0  0  0  0  0  0  0  0  0
   -6.2856    1.9958   -2.0171 H   0  0  0  0  0  0  0  0  0  0  0  0
   -4.4904    1.5269   -1.1777 C   0  0  0  0  0  0  0  0  0  0  0  0
   -4.1826    0.7151   -2.0340 O   0  0  0  0  0  0  0  0  0  0  0  0
   -5.6206    4.3340    1.7289 C   0  0  0  0  0  0  0  0  0  0  0  0
   -6.3839    3.6396    2.8272 C   0  0  0  0  0  0  0  0  0  0  0  0
   -7.7569    3.5064    2.7372 C   0  0  0  0  0  0  0  0  0  0  0  0
   -8.4564    2.8651    3.7424 C   0  0  0  0  0  0  0  0  0  0  0  0
   -7.7842    2.3663    4.8425 C   0  0  0  0  0  0  0  0  0  0  0  0
   -6.4119    2.5041    4.9350 C   0  0  0  0  0  0  0  0  0  0  0  0
   -5.7117    3.1408    3.9273 C   0  0  0  0  0  0  0  0  0  0  0  0
   -3.1745    2.9838    1.9181 N   0  0  0  0  0  0  0  0  0  0  0  0
    6.0400    0.8956    0.6218 C   0  0  0  0  0  0  0  0  0  0  0  0
    6.7388   -0.0781    0.8224 O   0  0  0  0  0  0  0  0  0  0  0  0
    4.5038   -1.9596    2.0053 H   0  0  0  0  0  0  0  0  0  0  0  0
    3.7883   -2.5442    0.4839 H   0  0  0  0  0  0  0  0  0  0  0  0
    5.4276   -1.8506    0.4878 H   0  0  0  0  0  0  0  0  0  0  0  0
    3.8418    2.8283    0.1685 H   0  0  0  0  0  0  0  0  0  0  0  0
    1.1427    2.9212   -0.0306 H   0  0  0  0  0  0  0  0  0  0  0  0
    0.0238    0.0852    0.3356 H   0  0  0  0  0  0  0  0  0  0  0  0
   -3.2636   -0.7659   -0.2913 H   0  0  0  0  0  0  0  0  0  0  0  0
   -1.4874   -0.7373   -0.4034 H   0  0  0  0  0  0  0  0  0  0  0  0
   -2.1393   -1.7988    1.7040 H   0  0  0  0  0  0  0  0  0  0  0  0
   -1.3887   -0.2232    2.0538 H   0  0  0  0  0  0  0  0  0  0  0  0
   -4.3835   -0.2620    4.1257 H   0  0  0  0  0  0  0  0  0  0  0  0
   -3.3611   -1.6868    3.8208 H   0  0  0  0  0  0  0  0  0  0  0  0
   -2.6105   -0.1112    4.1706 H   0  0  0  0  0  0  0  0  0  0  0  0
   -4.7382    4.8168    2.1488 H   0  0  0  0  0  0  0  0  0  0  0  0
   -6.2581    5.0849    1.2621 H   0  0  0  0  0  0  0  0  0  0  0  0
   -8.2825    3.9000    1.8798 H   0  0  0  0  0  0  0  0  0  0  0  0
   -9.5286    2.7578    3.6703 H   0  0  0  0  0  0  0  0  0  0  0  0
   -8.3313    1.8692    5.6299 H   0  0  0  0  0  0  0  0  0  0  0  0
   -5.8868    2.1148    5.7946 H   0  0  0  0  0  0  0  0  0  0  0  0
   -4.6396    3.2488    3.9997 H   0  0  0  0  0  0  0  0  0  0  0  0
   -2.3643    2.4672    2.0509 H   0  0  0  0  0  0  0  0  0  0  0  0
   -3.4034    3.6946    2.5372 H   0  0  0  0  0  0  0  0  0  0  0  0
    6.6041    2.1100    0.4704 O   0  0  0  0  0  1  0  0  0  0  0  0
  1  2  1  0  0  0  0
  1 35  1  0  0  0  0
  1 36  1  0  0  0  0
  1 37  1  0  0  0  0
  2  6  1  0  0  0  0
  2  3  2  0  0  0  0
  3  4  1  0  0  0  0
  3 33  1  0  0  0  0
  4  5  2  0  0  0  0
  4 38  1  0  0  0  0
  5  6  1  0  0  0  0
  5  7  1  0  0  0  0
  7  8  2  0  0  0  0
  7 39  1  0  0  0  0
  8  9  1  0  0  0  0
  8 40  1  0  0  0  0
  9 10  2  0  0  0  0
  9 11  1  0  0  0  0
 11 12  1  0  0  0  0
 11 16  1  0  0  0  0
 12 13  1  0  0  0  0
 12 41  1  0  0  0  0
 12 42  1  0  0  0  0
 13 14  1  0  0  0  0
 13 43  1  0  0  0  0
 13 44  1  0  0  0  0
 14 15  1  0  0  0  0
 15 45  1  0  0  0  0
 15 46  1  0  0  0  0
 15 47  1  0  0  0  0
 16 23  1  0  0  0  0
 16 17  2  0  0  0  0
 17 18  1  0  0  0  0
 17 32  1  0  0  0  0
 18 19  1  0  0  0  0
 18 25  1  0  0  0  0
 19 20  2  0  0  0  0
 19 21  1  0  0  0  0
 21 22  1  0  0  0  0
 21 23  1  0  0  0  0
 23 24  2  0  0  0  0
 25 26  1  0  0  0  0
 25 48  1  0  0  0  0
 25 49  1  0  0  0  0
 26 31  2  0  0  0  0
 26 27  1  0  0  0  0
 27 28  2  0  0  0  0
 27 50  1  0  0  0  0
 28 29  1  0  0  0  0
 28 51  1  0  0  0  0
 29 30  2  0  0  0  0
 29 52  1  0  0  0  0
 30 31  1  0  0  0  0
 30 53  1  0  0  0  0
 31 54  1  0  0  0  0
 32 55  1  0  0  0  0
 32 56  1  0  0  0  0
 33 34  2  0  0  0  0
 33 57  1  0  0  0  0
M  END
$$$$
ZINC39997204
 OpenBabel01252620473D

 47 49  0  0  0  0  0  0  0  0999 V2000
   -0.4470   -0.8590   -2.1566 C   0  0  0  0  0  0  0  0  0  0  0  0
   -0.0536   -1.9773   -1.5992 C   0  0  0  0  0  0  0  0  0  0  0  0
    1.3419   -2.0914   -1.0419 C   0  0  0  0  0  0  0  0  0  0  0  0
    1.2920   -2.7136    0.2436 O   0  0  0  0  0  0  0  0  0  0  0  0
    2.4727   -2.8928    0.8874 C   0  0  0  0  0  0  0  0  0  0  0  0
    3.6563   -2.4748    0.3006 C   0  0  0  0  0  0  0  0  0  0  0  0
    4.8583   -2.6581    0.9567 C   0  0  0  0  0  0  0  0  0  0  0  0
    4.8934   -3.2601    2.2049 C   0  0  0  0  0  0  0  0  0  0  0  0
    3.7293   -3.6825    2.8065 C   0  0  0  0  0  0  0  0  0  0  0  0
    2.5012   -3.4984    2.1562 C   0  0  0  0  0  0  0  0  0  0  0  0
    1.2575   -3.9395    2.7908 C   0  0  0  0  0  0  0  0  0  0  0  0
    1.2565   -5.0497    3.6072 C   0  0  0  0  0  0  0  0  0  0  0  0
    2.4343   -5.8563    3.7202 C   0  0  0  0  0  0  0  0  0  0  0  0
    3.3687   -6.4962    3.8099 N   0  0  0  0  0  0  0  0  0  0  0  0
    0.0469   -5.4059    4.3616 C   0  0  0  0  0  0  0  0  0  0  0  0
   -1.0661   -4.6436    4.2548 O   0  5  0  0  0  0  0  0  0  0  0  0
    0.0460   -6.4649    5.1403 N   0  0  0  0  0  0  0  0  0  0  0  0
   -1.0722   -6.7941    5.8379 C   0  0  0  0  0  0  0  0  0  0  0  0
   -2.2615   -6.1988    5.8771 N   0  0  0  0  0  0  0  0  0  0  0  0
   -3.2035   -6.6430    6.5886 N   0  0  0  0  0  0  0  0  0  0  0  0
   -3.0648   -7.7284    7.3391 C   0  0  0  0  0  0  0  0  0  0  0  0
   -1.3682   -8.1573    6.9603 S   0  0  0  0  0  0  0  0  0  0  0  0
   -4.2233   -8.5256    8.4007 S   0  0  0  0  0  0  0  0  0  0  0  0
   -5.7215   -7.5133    8.2542 C   0  0  0  0  0  0  0  0  0  0  0  0
   -6.8066   -8.0932    9.1244 C   0  0  0  0  0  0  0  0  0  0  0  0
   -7.6705   -9.0427    8.6115 C   0  0  0  0  0  0  0  0  0  0  0  0
   -8.6658   -9.5746    9.4098 C   0  0  0  0  0  0  0  0  0  0  0  0
   -8.7970   -9.1573   10.7211 C   0  0  0  0  0  0  0  0  0  0  0  0
   -7.9326   -8.2084   11.2343 C   0  0  0  0  0  0  0  0  0  0  0  0
   -6.9346   -7.6797   10.4373 C   0  0  0  0  0  0  0  0  0  0  0  0
    0.2289   -0.0187   -2.2167 H   0  0  0  0  0  0  0  0  0  0  0  0
   -1.4456   -0.7787   -2.5600 H   0  0  0  0  0  0  0  0  0  0  0  0
   -0.7295   -2.8176   -1.5390 H   0  0  0  0  0  0  0  0  0  0  0  0
    1.9533   -2.6938   -1.7137 H   0  0  0  0  0  0  0  0  0  0  0  0
    1.7778   -1.0968   -0.9474 H   0  0  0  0  0  0  0  0  0  0  0  0
    3.6393   -2.0051   -0.6718 H   0  0  0  0  0  0  0  0  0  0  0  0
    5.7772   -2.3303    0.4936 H   0  0  0  0  0  0  0  0  0  0  0  0
    5.8390   -3.3987    2.7080 H   0  0  0  0  0  0  0  0  0  0  0  0
    3.7618   -4.1513    3.7789 H   0  0  0  0  0  0  0  0  0  0  0  0
    0.3409   -3.3948    2.6190 H   0  0  0  0  0  0  0  0  0  0  0  0
   -5.5043   -6.4944    8.5747 H   0  0  0  0  0  0  0  0  0  0  0  0
   -6.0540   -7.5046    7.2162 H   0  0  0  0  0  0  0  0  0  0  0  0
   -7.5679   -9.3687    7.5870 H   0  0  0  0  0  0  0  0  0  0  0  0
   -9.3412  -10.3159    9.0089 H   0  0  0  0  0  0  0  0  0  0  0  0
   -9.5751   -9.5723   11.3446 H   0  0  0  0  0  0  0  0  0  0  0  0
   -8.0354   -7.8821   12.2587 H   0  0  0  0  0  0  0  0  0  0  0  0
   -6.2569   -6.9411   10.8393 H   0  0  0  0  0  0  0  0  0  0  0  0
  1  2  2  0  0  0  0
  1 31  1  0  0  0  0
  1 32  1  0  0  0  0
  2  3  1  0  0  0  0
  2 33  1  0  0  0  0
  3  4  1  0  0  0  0
  3 34  1  0  0  0  0
  3 35  1  0  0  0  0
  4  5  1  0  0  0  0
  5 10  2  0  0  0  0
  5  6  1  0  0  0  0
  6  7  2  0  0  0  0
  6 36  1  0  0  0  0
  7  8  1  0  0  0  0
  7 37  1  0  0  0  0
  8  9  2  0  0  0  0
  8 38  1  0  0  0  0
  9 10  1  0  0  0  0
  9 39  1  0  0  0  0
 10 11  1  0  0  0  0
 11 12  2  0  0  0  0
 11 40  1  0  0  0  0
 12 13  1  0  0  0  0
 12 15  1  0  0  0  0
 13 14  3  0  0  0  0
 15 16  1  0  0  0  0
 15 17  2  0  0  0  0
 17 18  1  0  0  0  0
 18 22  1  0  0  0  0
 18 19  2  0  0  0  0
 19 20  1  0  0  0  0
 20 21  2  0  0  0  0
 21 22  1  0  0  0  0
 21 23  1  0  0  0  0
 23 24  1  0  0  0  0
 24 25  1  0  0  0  0
 24 41  1  0  0  0  0
 24 42  1  0  0  0  0
 25 30  2  0  0  0  0
 25 26  1  0  0  0  0
 26 27  2  0  0  0  0
 26 43  1  0  0  0  0
 27 28  1  0  0  0  0
 27 44  1  0  0  0  0
 28 29  2  0  0  0  0
 28 45  1  0  0  0  0
 29 30  1  0  0  0  0
 29 46  1  0  0  0  0
 30 47  1  0  0  0  0
M  CHG  1  16  -1
M  END
$$$$
ZINC13193335
 OpenBabel01252620473D

 41 43  0  0  0  0  0  0  0  0999 V2000
   -1.0805    1.9149    0.0166 C   0  0  0  0  0  0  0  0  0  0  0  0
   -0.8658    3.2748    0.0265 C   0  0  0  0  0  0  0  0  0  0  0  0
    0.4258    3.7375    0.0170 C   0  0  0  0  0  0  0  0  0  0  0  0
    1.3606    2.2165    0.0010 S   0  0  0  0  0  0  0  0  0  0  0  0
   -0.0126    1.0758    0.0080 C   0  0  0  0  0  0  0  0  0  0  0  0
    0.9137    5.1260    0.0189 C   0  0  0  0  0  0  0  0  0  0  0  0
    0.2124    6.2011    0.3041 N   0  0  0  0  0  0  0  0  0  0  0  0
    0.9533    7.2465    0.2078 N   0  0  0  0  0  0  0  0  0  0  0  0
    2.1722    6.9064   -0.1443 C   0  0  0  0  0  0  0  0  0  0  0  0
    2.1930    5.5452   -0.2720 N   0  0  0  0  0  0  0  0  0  0  0  0
    3.3365    4.7079   -0.6429 C   0  0  0  0  0  0  0  0  0  0  0  0
    3.3764    4.5438   -2.1636 C   0  0  0  0  0  0  0  0  0  0  0  0
    4.5526    3.6824   -2.5451 C   0  0  0  0  0  0  0  0  0  0  0  0
    5.2839    3.2447   -1.6887 O   0  0  0  0  0  0  0  0  0  0  0  0
    3.5302    8.0003   -0.3972 S   0  0  0  0  0  0  0  0  0  0  0  0
    2.7297    9.5834   -0.0381 C   0  0  0  0  0  0  0  0  0  0  0  0
    3.7455   10.7164   -0.1976 C   0  0  0  0  0  0  0  0  0  0  0  0
    3.1135   11.9663    0.0860 O   0  0  0  0  0  0  0  0  0  0  0  0
    3.8829   13.0828   -0.0105 C   0  0  0  0  0  0  0  0  0  0  0  0
    5.2182   12.9771   -0.3706 C   0  0  0  0  0  0  0  0  0  0  0  0
    5.9986   14.1128   -0.4681 C   0  0  0  0  0  0  0  0  0  0  0  0
    5.4492   15.3558   -0.2072 C   0  0  0  0  0  0  0  0  0  0  0  0
    4.1177   15.4641    0.1521 C   0  0  0  0  0  0  0  0  0  0  0  0
    3.3319   14.3306    0.2456 C   0  0  0  0  0  0  0  0  0  0  0  0
    1.5099   14.4793    0.7292 Br  0  0  0  0  0  0  0  0  0  0  0  0
    6.4324   16.7812   -0.3306 Cl  0  0  0  0  0  0  0  0  0  0  0  0
   -2.0858    1.5202    0.0190 H   0  0  0  0  0  0  0  0  0  0  0  0
   -1.6976    3.9637    0.0371 H   0  0  0  0  0  0  0  0  0  0  0  0
    0.0021   -0.0041    0.0020 H   0  0  0  0  0  0  0  0  0  0  0  0
    4.2582    5.1809   -0.3042 H   0  0  0  0  0  0  0  0  0  0  0  0
    3.2370    3.7288   -0.1743 H   0  0  0  0  0  0  0  0  0  0  0  0
    2.4546    4.0708   -2.5023 H   0  0  0  0  0  0  0  0  0  0  0  0
    3.4759    5.5229   -2.6322 H   0  0  0  0  0  0  0  0  0  0  0  0
    1.9020    9.7374   -0.7304 H   0  0  0  0  0  0  0  0  0  0  0  0
    2.3516    9.5757    0.9842 H   0  0  0  0  0  0  0  0  0  0  0  0
    4.5732   10.5624    0.4948 H   0  0  0  0  0  0  0  0  0  0  0  0
    4.1236   10.7241   -1.2199 H   0  0  0  0  0  0  0  0  0  0  0  0
    5.6475   12.0074   -0.5750 H   0  0  0  0  0  0  0  0  0  0  0  0
    7.0384   14.0305   -0.7484 H   0  0  0  0  0  0  0  0  0  0  0  0
    3.6906   16.4351    0.3549 H   0  0  0  0  0  0  0  0  0  0  0  0
    4.7879    3.4015   -3.8364 O   0  0  0  0  0  1  0  0  0  0  0  0
  1  5  2  0  0  0  0
  1  2  1  0  0  0  0
  1 27  1  0  0  0  0
  2  3  2  0  0  0  0
  2 28  1  0  0  0  0
  3  4  1  0  0  0  0
  3  6  1  0  0  0  0
  4  5  1  0  0  0  0
  5 29  1  0  0  0  0
  6 10  1  0  0  0  0
  6  7  2  0  0  0  0
  7  8  1  0  0  0  0
  8  9  2  0  0  0  0
  9 10  1  0  0  0  0
  9 15  1  0  0  0  0
 10 11  1  0  0  0  0
 11 12  1  0  0  0  0
 11 30  1  0  0  0  0
 11 31  1  0  0  0  0
 12 13  1  0  0  0  0
 12 32  1  0  0  0  0
 12 33  1  0  0  0  0
 13 14  2  0  0  0  0
 13 41  1  0  0  0  0
 15 16  1  0  0  0  0
 16 17  1  0  0  0  0
 16 34  1  0  0  0  0
 16 35  1  0  0  0  0
 17 18  1  0  0  0  0
 17 36  1  0  0  0  0
 17 37  1  0  0  0  0
 18 19  1  0  0  0  0
 19 24  2  0  0  0  0
 19 20  1  0  0  0  0
 20 21  2  0  0  0  0
 20 38  1  0  0  0  0
 21 22  1  0  0  0  0
 21 39  1  0  0  0  0
 22 23  2  0  0  0  0
 22 26  1  0  0  0  0
 23 24  1  0  0  0  0
 23 40  1  0  0  0  0
 24 25  1  0  0  0  0
M  END
$$$$
ZINC13637596
 OpenBabel01252620473D

 37 39  0  0  1  0  0  0  0  0999 V2000
   -0.0184    1.5028    0.0103 C   0  0  0  0  0  0  0  0  0  0  0  0
    0.0021   -0.0041    0.0020 C   0  0  0  0  0  0  0  0  0  0  0  0
   -1.2160   -0.6896    0.0043 C   0  0  0  0  0  0  0  0  0  0  0  0
   -1.1654   -2.2086   -0.0042 C   0  0  2  0  0  0  0  0  0  0  0  0
   -1.6916   -2.5727    0.8782 H   0  0  0  0  0  0  0  0  0  0  0  0
    0.2188   -2.8160   -0.0143 C   0  0  0  0  0  0  0  0  0  0  0  0
    1.3292   -1.9452   -0.0151 C   0  0  0  0  0  0  0  0  0  0  0  0
    2.5589   -2.4721   -0.0240 N   0  0  0  0  0  0  0  0  0  0  0  0
    2.7336   -3.7883   -0.0320 C   0  0  0  0  0  0  0  0  0  0  0  0
    4.3257   -4.4175   -0.0432 S   0  0  0  0  0  0  0  0  0  0  0  0
    1.6927   -4.6407   -0.0310 N   0  0  0  0  0  0  0  0  0  0  0  0
    1.8505   -5.5977   -0.0364 H   0  0  0  0  0  0  0  0  0  0  0  0
    0.4087   -4.1586   -0.0221 C   0  0  0  0  0  0  0  0  0  0  0  0
   -0.6454   -5.0041   -0.0216 O   0  5  0  0  0  0  0  0  0  0  0  0
    1.1585   -0.6142   -0.0123 N   0  0  0  0  0  0  0  0  0  0  0  0
   -1.9008   -2.6986   -1.2249 C   0  0  0  0  0  0  0  0  0  0  0  0
   -1.4691   -2.3290   -2.4854 C   0  0  0  0  0  0  0  0  0  0  0  0
   -2.1418   -2.7764   -3.6059 C   0  0  0  0  0  0  0  0  0  0  0  0
   -3.2511   -3.5978   -3.4658 C   0  0  0  0  0  0  0  0  0  0  0  0
   -3.6819   -3.9676   -2.2000 C   0  0  0  0  0  0  0  0  0  0  0  0
   -3.0027   -3.5216   -1.0827 C   0  0  0  0  0  0  0  0  0  0  0  0
   -3.9148   -4.0389   -4.5666 O   0  0  0  0  0  0  0  0  0  0  0  0
   -2.4056   -0.0204    0.0142 C   0  0  0  0  0  0  0  0  0  0  0  0
   -2.4207    1.3277    0.0221 O   0  5  0  0  0  0  0  0  0  0  0  0
   -3.5656   -0.7076    0.0162 O   0  0  0  0  0  0  0  0  0  0  0  0
   -4.7727    0.0573    0.0267 C   0  0  0  0  0  0  0  0  0  0  0  0
    1.0042    1.8801    0.0026 H   0  0  0  0  0  0  0  0  0  0  0  0
   -0.5455    1.8639   -0.8728 H   0  0  0  0  0  0  0  0  0  0  0  0
   -0.5286    1.8543    0.9071 H   0  0  0  0  0  0  0  0  0  0  0  0
   -0.6055   -1.6896   -2.5940 H   0  0  0  0  0  0  0  0  0  0  0  0
   -1.8047   -2.4869   -4.5903 H   0  0  0  0  0  0  0  0  0  0  0  0
   -4.5452   -4.6068   -2.0882 H   0  0  0  0  0  0  0  0  0  0  0  0
   -3.3350   -3.8128   -0.0973 H   0  0  0  0  0  0  0  0  0  0  0  0
   -3.5840   -4.8780   -4.9153 H   0  0  0  0  0  0  0  0  0  0  0  0
   -5.6296   -0.6164    0.0272 H   0  0  0  0  0  0  0  0  0  0  0  0
   -4.8000    0.6806    0.9205 H   0  0  0  0  0  0  0  0  0  0  0  0
   -4.8091    0.6909   -0.8594 H   0  0  0  0  0  0  0  0  0  0  0  0
  1  2  1  0  0  0  0
  1 27  1  0  0  0  0
  1 28  1  0  0  0  0
  1 29  1  0  0  0  0
  2 15  2  0  0  0  0
  2  3  1  0  0  0  0
  3  4  1  0  0  0  0
  3 23  2  0  0  0  0
  4  5  1  1  0  0  0
  4  6  1  0  0  0  0
  4 16  1  0  0  0  0
  6 13  2  0  0  0  0
  6  7  1  0  0  0  0
  7  8  2  0  0  0  0
  7 15  1  0  0  0  0
  8  9  1  0  0  0  0
  9 10  2  0  0  0  0
  9 11  1  0  0  0  0
 11 12  1  0  0  0  0
 11 13  1  0  0  0  0
 13 14  1  0  0  0  0
 16 21  2  0  0  0  0
 16 17  1  0  0  0  0
 17 18  2  0  0  0  0
 17 30  1  0  0  0  0
 18 19  1  0  0  0  0
 18 31  1  0  0  0  0
 19 20  2  0  0  0  0
 19 22  1  0  0  0  0
 20 21  1  0  0  0  0
 20 32  1  0  0  0  0
 21 33  1  0  0  0  0
 22 34  1  0  0  0  0
 23 24  1  0  0  0  0
 23 25  1  0  0  0  0
 25 26  1  0  0  0  0
 26 35  1  0  0  0  0
 26 36  1  0  0  0  0
 26 37  1  0  0  0  0
M  CHG  2  14  -1  24  -1
M  END
$$$$
ZINC59366791
 OpenBabel01252620473D

 40 41  0  0  1  0  0  0  0  0999 V2000
   -0.0543    1.5214   -0.0051 C   0  0  0  0  0  0  0  0  0  0  0  0
   -0.0373   -0.0084   -0.0174 C   0  0  0  0  0  0  0  0  0  0  0  0
    0.6457   -0.4678   -1.1855 O   0  0  0  0  0  0  0  0  0  0  0  0
    0.7493   -1.8018   -1.3489 C   0  0  0  0  0  0  0  0  0  0  0  0
    0.2206   -2.6362   -0.4318 O   0  5  0  0  0  0  0  0  0  0  0  0
    1.3948   -2.3117   -2.4520 C   0  0  0  0  0  0  0  0  0  0  0  0
    1.6189   -3.6831   -2.5928 C   0  0  0  0  0  0  0  0  0  0  0  0
    2.2325   -4.1827   -3.6384 N   0  0  0  0  0  0  0  0  0  0  0  0
    2.7042   -3.4770   -4.6631 C   0  0  0  0  0  0  0  0  0  0  0  0
    3.3181   -4.1267   -5.6787 O   0  5  0  0  0  0  0  0  0  0  0  0
    2.5862   -2.0992   -4.7228 C   0  0  0  0  0  0  0  0  0  0  0  0
    1.8862   -1.4069   -3.5675 C   0  0  2  0  0  0  0  0  0  0  0  0
    1.0310   -0.8588   -3.9629 H   0  0  0  0  0  0  0  0  0  0  0  0
    2.8439   -0.4060   -2.9742 C   0  0  0  0  0  0  0  0  0  0  0  0
    3.9960   -0.8404   -2.3452 C   0  0  0  0  0  0  0  0  0  0  0  0
    4.8743    0.0775   -1.8010 C   0  0  0  0  0  0  0  0  0  0  0  0
    4.6012    1.4302   -1.8860 C   0  0  0  0  0  0  0  0  0  0  0  0
    3.4499    1.8645   -2.5156 C   0  0  0  0  0  0  0  0  0  0  0  0
    2.5734    0.9464   -3.0637 C   0  0  0  0  0  0  0  0  0  0  0  0
    3.1572    3.3126   -2.6062 N   0  0  0  0  0  4  0  0  0  0  0  0
    3.9252    4.1155   -2.1294 O   0  0  0  0  0  0  0  0  0  0  0  0
    2.1502    3.6925   -3.1569 O   0  5  0  0  0  0  0  0  0  0  0  0
    3.0888   -1.3720   -5.8106 C   0  0  0  0  0  0  0  0  0  0  0  0
    3.6429   -1.9528   -6.7285 O   0  0  0  0  0  0  0  0  0  0  0  0
    2.9596   -0.0308   -5.8419 N   0  0  0  0  0  0  0  0  0  0  0  0
    1.1415   -4.6166   -1.5104 C   0  0  0  0  0  0  0  0  0  0  0  0
    0.9693    1.8961    0.0016 H   0  0  0  0  0  0  0  0  0  0  0  0
   -0.5689    1.8863   -0.8940 H   0  0  0  0  0  0  0  0  0  0  0  0
   -0.5752    1.8719    0.8859 H   0  0  0  0  0  0  0  0  0  0  0  0
    0.4773   -0.3733    0.8715 H   0  0  0  0  0  0  0  0  0  0  0  0
   -1.0609   -0.3830   -0.0241 H   0  0  0  0  0  0  0  0  0  0  0  0
    4.2093   -1.8970   -2.2788 H   0  0  0  0  0  0  0  0  0  0  0  0
    5.7739   -0.2618   -1.3091 H   0  0  0  0  0  0  0  0  0  0  0  0
    5.2872    2.1474   -1.4602 H   0  0  0  0  0  0  0  0  0  0  0  0
    1.6757    1.2859   -3.5589 H   0  0  0  0  0  0  0  0  0  0  0  0
    2.5188    0.4312   -5.1118 H   0  0  0  0  0  0  0  0  0  0  0  0
    3.3074    0.4724   -6.5947 H   0  0  0  0  0  0  0  0  0  0  0  0
    0.0535   -4.5824   -1.4548 H   0  0  0  0  0  0  0  0  0  0  0  0
    1.4618   -5.6329   -1.7397 H   0  0  0  0  0  0  0  0  0  0  0  0
    1.5640   -4.3097   -0.5536 H   0  0  0  0  0  0  0  0  0  0  0  0
  1  2  1  0  0  0  0
  1 27  1  0  0  0  0
  1 28  1  0  0  0  0
  1 29  1  0  0  0  0
  2  3  1  0  0  0  0
  2 30  1  0  0  0  0
  2 31  1  0  0  0  0
  3  4  1  0  0  0  0
  4  5  1  0  0  0  0
  4  6  2  0  0  0  0
  6 12  1  0  0  0  0
  6  7  1  0  0  0  0
  7  8  2  0  0  0  0
  7 26  1  0  0  0  0
  8  9  1  0  0  0  0
  9 10  1  0  0  0  0
  9 11  2  0  0  0  0
 11 12  1  0  0  0  0
 11 23  1  0  0  0  0
 12 13  1  6  0  0  0
 12 14  1  0  0  0  0
 14 19  2  0  0  0  0
 14 15  1  0  0  0  0
 15 16  2  0  0  0  0
 15 32  1  0  0  0  0
 16 17  1  0  0  0  0
 16 33  1  0  0  0  0
 17 18  2  0  0  0  0
 17 34  1  0  0  0  0
 18 19  1  0  0  0  0
 18 20  1  0  0  0  0
 19 35  1  0  0  0  0
 20 21  2  0  0  0  0
 20 22  1  0  0  0  0
 23 24  2  0  0  0  0
 23 25  1  0  0  0  0
 25 36  1  0  0  0  0
 25 37  1  0  0  0  0
 26 38  1  0  0  0  0
 26 39  1  0  0  0  0
 26 40  1  0  0  0  0
M  CHG  3   5  -1  10  -1  22  -1
M  END
$$$$
ZINC11865607
 OpenBabel01252620473D

 59 61  0  0  1  0  0  0  0  0999 V2000
   -4.9032   12.8248   -1.5969 C   0  0  0  0  0  0  0  0  0  0  0  0
   -4.0845   12.8804   -2.8609 C   0  0  0  0  0  0  0  0  0  0  0  0
   -3.6460   13.9794   -3.4872 C   0  0  0  0  0  0  0  0  0  0  0  0
   -2.9469   13.6426   -4.5857 O   0  0  0  0  0  0  0  0  0  0  0  0
   -2.8938   12.3028   -4.7320 C   0  0  0  0  0  0  0  0  0  0  0  0
   -3.6072   11.7391   -3.6544 C   0  0  0  0  0  0  0  0  0  0  0  0
   -3.7282   10.3619   -3.5343 C   0  0  0  0  0  0  0  0  0  0  0  0
   -3.1349    9.5382   -4.4911 C   0  0  0  0  0  0  0  0  0  0  0  0
   -3.2478    8.0793   -4.3985 C   0  0  0  0  0  0  0  0  0  0  0  0
   -2.6476    7.3274   -5.3559 C   0  0  0  0  0  0  0  0  0  0  0  0
   -1.9484    7.9575   -6.4072 C   0  0  0  0  0  0  0  0  0  0  0  0
   -1.4186    7.2705   -7.2618 O   0  0  0  0  0  0  0  0  0  0  0  0
   -1.8520    9.2931   -6.4907 O   0  0  0  0  0  0  0  0  0  0  0  0
   -2.4213   10.1022   -5.5689 C   0  0  0  0  0  0  0  0  0  0  0  0
   -2.3072   11.4772   -5.6796 C   0  0  0  0  0  0  0  0  0  0  0  0
   -1.5440   12.0782   -6.8316 C   0  0  0  0  0  0  0  0  0  0  0  0
   -2.7329    5.8239   -5.2996 C   0  0  0  0  0  0  0  0  0  0  0  0
   -1.5503    5.2755   -4.4986 C   0  0  0  0  0  0  0  0  0  0  0  0
   -1.6357    3.7720   -4.4424 C   0  0  0  0  0  0  0  0  0  0  0  0
   -2.5522    3.1958   -4.9892 O   0  0  0  0  0  0  0  0  0  0  0  0
   -0.6936    3.0677   -3.7845 N   0  0  0  0  0  0  0  0  0  0  0  0
   -0.7766    1.6061   -3.7298 C   0  0  2  0  0  0  0  0  0  0  0  0
   -1.8223    1.3032   -3.6778 H   0  0  0  0  0  0  0  0  0  0  0  0
   -0.0366    1.0992   -2.4903 C   0  0  0  0  0  0  0  0  0  0  0  0
   -0.7527    1.5927   -1.2315 C   0  0  0  0  0  0  0  0  0  0  0  0
   -0.0127    1.0858    0.0080 C   0  0  0  0  0  0  0  0  0  0  0  0
   -0.6984    1.5583    1.2133 N   0  0  0  0  0  0  0  0  0  0  0  0
   -0.2219    1.2324    2.4312 C   0  0  0  0  0  0  0  0  0  0  0  0
    0.7771    0.5463    2.5296 O   0  0  0  0  0  0  0  0  0  0  0  0
   -0.8528    1.6671    3.5401 N   0  0  0  0  0  0  0  0  0  0  0  0
   -0.1449    1.0205   -4.9664 C   0  0  0  0  0  0  0  0  0  0  0  0
    0.3262    1.7493   -5.8071 O   0  0  0  0  0  0  0  0  0  0  0  0
   -4.0055    7.4319   -3.2681 C   0  0  0  0  0  0  0  0  0  0  0  0
   -4.2378   12.7845   -0.7346 H   0  0  0  0  0  0  0  0  0  0  0  0
   -5.5302   13.7139   -1.5308 H   0  0  0  0  0  0  0  0  0  0  0  0
   -5.5337   11.9358   -1.6112 H   0  0  0  0  0  0  0  0  0  0  0  0
   -3.8282   14.9916   -3.1578 H   0  0  0  0  0  0  0  0  0  0  0  0
   -4.2749    9.9322   -2.7079 H   0  0  0  0  0  0  0  0  0  0  0  0
   -2.2227   12.2498   -7.6671 H   0  0  0  0  0  0  0  0  0  0  0  0
   -1.1036   13.0256   -6.5208 H   0  0  0  0  0  0  0  0  0  0  0  0
   -0.7535   11.3940   -7.1402 H   0  0  0  0  0  0  0  0  0  0  0  0
   -2.7046    5.4203   -6.3118 H   0  0  0  0  0  0  0  0  0  0  0  0
   -3.6655    5.5307   -4.8175 H   0  0  0  0  0  0  0  0  0  0  0  0
   -1.5787    5.6792   -3.4865 H   0  0  0  0  0  0  0  0  0  0  0  0
   -0.6178    5.5687   -4.9807 H   0  0  0  0  0  0  0  0  0  0  0  0
    0.0394    3.5286   -3.3472 H   0  0  0  0  0  0  0  0  0  0  0  0
    0.9860    1.4765   -2.4981 H   0  0  0  0  0  0  0  0  0  0  0  0
   -0.0218    0.0093   -2.4963 H   0  0  0  0  0  0  0  0  0  0  0  0
   -1.7753    1.2154   -1.2238 H   0  0  0  0  0  0  0  0  0  0  0  0
   -0.7675    2.6825   -1.2255 H   0  0  0  0  0  0  0  0  0  0  0  0
    0.0021   -0.0041    0.0020 H   0  0  0  0  0  0  0  0  0  0  0  0
    1.0099    1.4631    0.0003 H   0  0  0  0  0  0  0  0  0  0  0  0
   -1.4954    2.1056    1.1349 H   0  0  0  0  0  0  0  0  0  0  0  0
   -1.6497    2.2144    3.4616 H   0  0  0  0  0  0  0  0  0  0  0  0
   -0.5098    1.4325    4.4166 H   0  0  0  0  0  0  0  0  0  0  0  0
   -3.3277    7.2483   -2.4345 H   0  0  0  0  0  0  0  0  0  0  0  0
   -4.8094    8.0929   -2.9440 H   0  0  0  0  0  0  0  0  0  0  0  0
   -4.4276    6.4863   -3.6083 H   0  0  0  0  0  0  0  0  0  0  0  0
   -0.1057   -0.3107   -5.1339 O   0  0  0  0  0  1  0  0  0  0  0  0
  1  2  1  0  0  0  0
  1 34  1  0  0  0  0
  1 35  1  0  0  0  0
  1 36  1  0  0  0  0
  2  6  1  0  0  0  0
  2  3  2  0  0  0  0
  3  4  1  0  0  0  0
  3 37  1  0  0  0  0
  4  5  1  0  0  0  0
  5 15  2  0  0  0  0
  5  6  1  0  0  0  0
  6  7  2  0  0  0  0
  7  8  1  0  0  0  0
  7 38  1  0  0  0  0
  8 14  2  0  0  0  0
  8  9  1  0  0  0  0
  9 10  2  0  0  0  0
  9 33  1  0  0  0  0
 10 11  1  0  0  0  0
 10 17  1  0  0  0  0
 11 12  2  0  0  0  0
 11 13  1  0  0  0  0
 13 14  1  0  0  0  0
 14 15  1  0  0  0  0
 15 16  1  0  0  0  0
 16 39  1  0  0  0  0
 16 40  1  0  0  0  0
 16 41  1  0  0  0  0
 17 18  1  0  0  0  0
 17 42  1  0  0  0  0
 17 43  1  0  0  0  0
 18 19  1  0  0  0  0
 18 44  1  0  0  0  0
 18 45  1  0  0  0  0
 19 20  2  0  0  0  0
 19 21  1  0  0  0  0
 21 22  1  0  0  0  0
 21 46  1  0  0  0  0
 22 23  1  1  0  0  0
 22 24  1  0  0  0  0
 22 31  1  0  0  0  0
 24 25  1  0  0  0  0
 24 47  1  0  0  0  0
 24 48  1  0  0  0  0
 25 26  1  0  0  0  0
 25 49  1  0  0  0  0
 25 50  1  0  0  0  0
 26 27  1  0  0  0  0
 26 51  1  0  0  0  0
 26 52  1  0  0  0  0
 27 28  1  0  0  0  0
 27 53  1  0  0  0  0
 28 29  2  0  0  0  0
 28 30  1  0  0  0  0
 30 54  1  0  0  0  0
 30 55  1  0  0  0  0
 31 32  2  0  0  0  0
 31 59  1  0  0  0  0
 33 56  1  0  0  0  0
 33 57  1  0  0  0  0
 33 58  1  0  0  0  0
M  END
$$$$
ZINC13259176
 OpenBabel01252620473D

 46 47  0  0  1  0  0  0  0  0999 V2000
   -0.1950   -1.2184    8.7848 C   0  0  0  0  0  0  0  0  0  0  0  0
    0.2640   -2.2936    7.9020 N   0  0  0  0  0  0  0  0  0  0  0  0
    1.6493   -2.5504    7.7601 O   0  0  0  0  0  0  0  0  0  0  0  0
    2.2718   -1.8144    6.7051 C   0  0  0  0  0  0  0  0  0  0  0  0
   -0.8372   -3.2087    7.0700 S   0  0  0  0  0  0  0  0  0  0  0  0
   -2.0863   -3.0359    7.7250 O   0  0  0  0  0  0  0  0  0  0  0  0
   -0.2450   -4.4870    6.8839 O   0  0  0  0  0  0  0  0  0  0  0  0
   -1.0050   -2.4935    5.4685 C   0  0  0  0  0  0  0  0  0  0  0  0
   -0.1835   -2.9130    4.4373 C   0  0  0  0  0  0  0  0  0  0  0  0
   -0.3104   -2.3578    3.1808 C   0  0  0  0  0  0  0  0  0  0  0  0
   -1.2698   -1.3703    2.9512 C   0  0  0  0  0  0  0  0  0  0  0  0
   -2.0914   -0.9476    3.9972 C   0  0  0  0  0  0  0  0  0  0  0  0
   -1.9581   -1.5151    5.2476 C   0  0  0  0  0  0  0  0  0  0  0  0
   -1.4110   -0.7705    1.6072 C   0  0  0  0  0  0  0  0  0  0  0  0
   -0.6906   -1.1371    0.6994 O   0  0  0  0  0  0  0  0  0  0  0  0
   -2.3383    0.1827    1.3888 N   0  0  0  0  0  0  0  0  0  0  0  0
   -2.4049    0.8557    0.0892 C   0  0  2  0  0  0  0  0  0  0  0  0
   -2.2344    0.1293   -0.7053 H   0  0  0  0  0  0  0  0  0  0  0  0
   -1.3323    1.9448    0.0233 C   0  0  0  0  0  0  0  0  0  0  0  0
   -1.4762    2.8639    1.2089 C   0  0  0  0  0  0  0  0  0  0  0  0
   -2.3940    2.7154    1.9806 O   0  0  0  0  0  0  0  0  0  0  0  0
   -3.7657    1.4797   -0.0842 C   0  0  0  0  0  0  0  0  0  0  0  0
   -4.5152    1.8231    1.0254 C   0  0  0  0  0  0  0  0  0  0  0  0
   -5.7635    2.3950    0.8665 C   0  0  0  0  0  0  0  0  0  0  0  0
   -6.2629    2.6247   -0.4022 C   0  0  0  0  0  0  0  0  0  0  0  0
   -5.5143    2.2822   -1.5122 C   0  0  0  0  0  0  0  0  0  0  0  0
   -4.2626    1.7141   -1.3537 C   0  0  0  0  0  0  0  0  0  0  0  0
   -3.3186    1.2903   -2.7476 Cl  0  0  0  0  0  0  0  0  0  0  0  0
   -0.3512   -1.6140    9.7884 H   0  0  0  0  0  0  0  0  0  0  0  0
    0.5567   -0.4297    8.8181 H   0  0  0  0  0  0  0  0  0  0  0  0
   -1.1320   -0.8113    8.4048 H   0  0  0  0  0  0  0  0  0  0  0  0
    1.7987   -2.0686    5.7566 H   0  0  0  0  0  0  0  0  0  0  0  0
    2.1601   -0.7464    6.8922 H   0  0  0  0  0  0  0  0  0  0  0  0
    3.3312   -2.0669    6.6620 H   0  0  0  0  0  0  0  0  0  0  0  0
    0.5584   -3.6771    4.6163 H   0  0  0  0  0  0  0  0  0  0  0  0
    0.3310   -2.6866    2.3765 H   0  0  0  0  0  0  0  0  0  0  0  0
   -2.8328   -0.1808    3.8272 H   0  0  0  0  0  0  0  0  0  0  0  0
   -2.5962   -1.1921    6.0568 H   0  0  0  0  0  0  0  0  0  0  0  0
   -2.9617    0.4232    2.0920 H   0  0  0  0  0  0  0  0  0  0  0  0
   -1.4517    2.5171   -0.8966 H   0  0  0  0  0  0  0  0  0  0  0  0
   -0.3448    1.4836    0.0389 H   0  0  0  0  0  0  0  0  0  0  0  0
   -4.1255    1.6442    2.0166 H   0  0  0  0  0  0  0  0  0  0  0  0
   -6.3489    2.6628    1.7337 H   0  0  0  0  0  0  0  0  0  0  0  0
   -7.2383    3.0715   -0.5257 H   0  0  0  0  0  0  0  0  0  0  0  0
   -5.9043    2.4621   -2.5031 H   0  0  0  0  0  0  0  0  0  0  0  0
   -0.5817    3.8442    1.4106 O   0  0  0  0  0  1  0  0  0  0  0  0
  1  2  1  0  0  0  0
  1 29  1  0  0  0  0
  1 30  1  0  0  0  0
  1 31  1  0  0  0  0
  2  3  1  0  0  0  0
  2  5  1  0  0  0  0
  3  4  1  0  0  0  0
  4 32  1  0  0  0  0
  4 33  1  0  0  0  0
  4 34  1  0  0  0  0
  5  6  2  0  0  0  0
  5  7  2  0  0  0  0
  5  8  1  0  0  0  0
  8 13  2  0  0  0  0
  8  9  1  0  0  0  0
  9 10  2  0  0  0  0
  9 35  1  0  0  0  0
 10 11  1  0  0  0  0
 10 36  1  0  0  0  0
 11 12  2  0  0  0  0
 11 14  1  0  0  0  0
 12 13  1  0  0  0  0
 12 37  1  0  0  0  0
 13 38  1  0  0  0  0
 14 15  2  0  0  0  0
 14 16  1  0  0  0  0
 16 17  1  0  0  0  0
 16 39  1  0  0  0  0
 17 18  1  6  0  0  0
 17 19  1  0  0  0  0
 17 22  1  0  0  0  0
 19 20  1  0  0  0  0
 19 40  1  0  0  0  0
 19 41  1  0  0  0  0
 20 21  2  0  0  0  0
 20 46  1  0  0  0  0
 22 27  2  0  0  0  0
 22 23  1  0  0  0  0
 23 24  2  0  0  0  0
 23 42  1  0  0  0  0
 24 25  1  0  0  0  0
 24 43  1  0  0  0  0
 25 26  2  0  0  0  0
 25 44  1  0  0  0  0
 26 27  1  0  0  0  0
 26 45  1  0  0  0  0
 27 28  1  0  0  0  0
M  END
$$$$
ZINC40405929
 OpenBabel01252620473D

 56 59  0  0  0  0  0  0  0  0999 V2000
   -0.0184    1.5028    0.0103 C   0  0  0  0  0  0  0  0  0  0  0  0
    0.0021   -0.0041    0.0020 C   0  0  0  0  0  0  0  0  0  0  0  0
    0.0057   -0.6876   -1.1998 C   0  0  0  0  0  0  0  0  0  0  0  0
    0.0240   -2.0689   -1.2101 C   0  0  0  0  0  0  0  0  0  0  0  0
    0.0391   -2.7702   -0.0132 C   0  0  0  0  0  0  0  0  0  0  0  0
    0.0359   -2.0820    1.1914 C   0  0  0  0  0  0  0  0  0  0  0  0
    0.0229   -0.7006    1.1962 C   0  0  0  0  0  0  0  0  0  0  0  0
    0.0567   -4.1291   -0.0207 O   0  0  0  0  0  0  0  0  0  0  0  0
    0.0716   -4.7847    1.2490 C   0  0  0  0  0  0  0  0  0  0  0  0
    0.0899   -6.2775    1.0433 C   0  0  0  0  0  0  0  0  0  0  0  0
   -0.9673   -7.0282    0.9415 N   0  0  0  0  0  0  0  0  0  0  0  0
   -0.5909   -8.3216    0.7628 C   0  0  0  0  0  0  0  0  0  0  0  0
   -1.2962   -9.5122    0.5999 C   0  0  0  0  0  0  0  0  0  0  0  0
   -0.5977  -10.7060    0.4344 C   0  0  0  0  0  0  0  0  0  0  0  0
    0.8051  -10.7074    0.4320 C   0  0  0  0  0  0  0  0  0  0  0  0
    1.4975   -9.5435    0.5917 C   0  0  0  0  0  0  0  0  0  0  0  0
    0.8163   -8.3419    0.7578 C   0  0  0  0  0  0  0  0  0  0  0  0
    1.2150   -7.0351    0.9312 N   0  0  0  0  0  0  0  0  0  0  0  0
    2.5962   -6.5502    0.9885 C   0  0  0  0  0  0  0  0  0  0  0  0
    3.0871   -6.5787    2.4373 C   0  0  0  0  0  0  0  0  0  0  0  0
    4.5297   -6.0723    2.4971 C   0  0  0  0  0  0  0  0  0  0  0  0
    5.0010   -6.0996    3.8881 N   0  0  0  0  0  0  0  0  0  0  0  0
    4.2632   -5.1323    4.7135 C   0  0  0  0  0  0  0  0  0  0  0  0
    4.7433   -5.2359    6.1636 C   0  0  0  0  0  0  0  0  0  0  0  0
    6.1564   -5.0200    6.2092 O   0  0  0  0  0  0  0  0  0  0  0  0
    6.9060   -5.9450    5.4169 C   0  0  0  0  0  0  0  0  0  0  0  0
    6.4478   -5.8485    3.9592 C   0  0  0  0  0  0  0  0  0  0  0  0
   -1.3341  -11.9704    0.2618 C   0  0  0  0  0  0  0  0  0  0  0  0
   -2.5573  -11.9710    0.2641 O   0  0  0  0  0  0  0  0  0  0  0  0
   -0.7223  -13.0196    0.1164 O   0  0  0  0  0  1  0  0  0  0  0  0
    1.0042    1.8801    0.0026 H   0  0  0  0  0  0  0  0  0  0  0  0
   -0.5455    1.8639   -0.8728 H   0  0  0  0  0  0  0  0  0  0  0  0
   -0.5286    1.8543    0.9071 H   0  0  0  0  0  0  0  0  0  0  0  0
   -0.0061   -0.1412   -2.1314 H   0  0  0  0  0  0  0  0  0  0  0  0
    0.0261   -2.6024   -2.1492 H   0  0  0  0  0  0  0  0  0  0  0  0
    0.0477   -2.6256    2.1245 H   0  0  0  0  0  0  0  0  0  0  0  0
    0.0248   -0.1643    2.1337 H   0  0  0  0  0  0  0  0  0  0  0  0
    0.9606   -4.4833    1.8030 H   0  0  0  0  0  0  0  0  0  0  0  0
   -0.8192   -4.5064    1.8121 H   0  0  0  0  0  0  0  0  0  0  0  0
   -2.3762   -9.5095    0.6023 H   0  0  0  0  0  0  0  0  0  0  0  0
    1.3404  -11.6365    0.3032 H   0  0  0  0  0  0  0  0  0  0  0  0
    2.5775   -9.5545    0.5892 H   0  0  0  0  0  0  0  0  0  0  0  0
    3.2318   -7.1906    0.3769 H   0  0  0  0  0  0  0  0  0  0  0  0
    2.6387   -5.5287    0.6105 H   0  0  0  0  0  0  0  0  0  0  0  0
    2.4516   -5.9383    3.0489 H   0  0  0  0  0  0  0  0  0  0  0  0
    3.0447   -7.6002    2.8153 H   0  0  0  0  0  0  0  0  0  0  0  0
    5.1652   -6.7127    1.8855 H   0  0  0  0  0  0  0  0  0  0  0  0
    4.5721   -5.0508    2.1191 H   0  0  0  0  0  0  0  0  0  0  0  0
    4.4440   -4.1238    4.3415 H   0  0  0  0  0  0  0  0  0  0  0  0
    3.1967   -5.3525    4.6666 H   0  0  0  0  0  0  0  0  0  0  0  0
    4.2402   -4.4815    6.7684 H   0  0  0  0  0  0  0  0  0  0  0  0
    4.5140   -6.2278    6.5529 H   0  0  0  0  0  0  0  0  0  0  0  0
    7.9669   -5.7034    5.4816 H   0  0  0  0  0  0  0  0  0  0  0  0
    6.7395   -6.9575    5.7845 H   0  0  0  0  0  0  0  0  0  0  0  0
    6.9759   -6.5916    3.3617 H   0  0  0  0  0  0  0  0  0  0  0  0
    6.6635   -4.8515    3.5751 H   0  0  0  0  0  0  0  0  0  0  0  0
  1  2  1  0  0  0  0
  1 31  1  0  0  0  0
  1 32  1  0  0  0  0
  1 33  1  0  0  0  0
  2  7  2  0  0  0  0
  2  3  1  0  0  0  0
  3  4  2  0  0  0  0
  3 34  1  0  0  0  0
  4  5  1  0  0  0  0
  4 35  1  0  0  0  0
  5  6  2  0  0  0  0
  5  8  1  0  0  0  0
  6  7  1  0  0  0  0
  6 36  1  0  0  0  0
  7 37  1  0  0  0  0
  8  9  1  0  0  0  0
  9 10  1  0  0  0  0
  9 38  1  0  0  0  0
  9 39  1  0  0  0  0
 10 18  1  0  0  0  0
 10 11  2  0  0  0  0
 11 12  1  0  0  0  0
 12 17  2  0  0  0  0
 12 13  1  0  0  0  0
 13 14  2  0  0  0  0
 13 40  1  0  0  0  0
 14 15  1  0  0  0  0
 14 28  1  0  0  0  0
 15 16  2  0  0  0  0
 15 41  1  0  0  0  0
 16 17  1  0  0  0  0
 16 42  1  0  0  0  0
 17 18  1  0  0  0  0
 18 19  1  0  0  0  0
 19 20  1  0  0  0  0
 19 43  1  0  0  0  0
 19 44  1  0  0  0  0
 20 21  1  0  0  0  0
 20 45  1  0  0  0  0
 20 46  1  0  0  0  0
 21 22  1  0  0  0  0
 21 47  1  0  0  0  0
 21 48  1  0  0  0  0
 22 27  1  0  0  0  0
 22 23  1  0  0  0  0
 23 24  1  0  0  0  0
 23 49  1  0  0  0  0
 23 50  1  0  0  0  0
 24 25  1  0  0  0  0
 24 51  1  0  0  0  0
 24 52  1  0  0  0  0
 25 26  1  0  0  0  0
 26 27  1  0  0  0  0
 26 53  1  0  0  0  0
 26 54  1  0  0  0  0
 27 55  1  0  0  0  0
 27 56  1  0  0  0  0
 28 29  2  0  0  0  0
 28 30  1  0  0  0  0
M  END
$$$$
ZINC02169235
 OpenBabel01252620473D

 10 10  0  0  0  0  0  0  0  0999 V2000
    1.2696   -0.3398   -0.0119 C   0  0  0  0  0  0  0  0  0  0  0  0
    0.0021   -0.0041    0.0020 N   0  0  0  0  0  0  0  0  0  0  0  0
   -0.0162    1.3407    0.0094 C   0  0  0  0  0  0  0  0  0  0  0  0
    1.2182    1.7467   -0.0002 N   0  0  0  0  0  0  0  0  0  0  0  0
    1.9725    0.7968   -0.0125 O   0  0  0  0  0  0  0  0  0  0  0  0
   -1.2429    2.2160    0.0202 C   0  0  0  0  0  0  0  0  0  0  0  0
   -1.7237    2.5559    1.7244 Cl  0  0  0  0  0  0  0  0  0  0  0  0
    1.6691   -1.3431   -0.0214 H   0  0  0  0  0  0  0  0  0  0  0  0
   -1.0242    3.1543   -0.4896 H   0  0  0  0  0  0  0  0  0  0  0  0
   -2.0581    1.7054   -0.4923 H   0  0  0  0  0  0  0  0  0  0  0  0
  1  5  1  0  0  0  0
  1  2  2  0  0  0  0
  1  8  1  0  0  0  0
  2  3  1  0  0  0  0
  3  4  2  0  0  0  0
  3  6  1  0  0  0  0
  4  5  1  0  0  0  0
  6  7  1  0  0  0  0
  6  9  1  0  0  0  0
  6 10  1  0  0  0  0
M  END
$$$$
ZINC33848462
 OpenBabel01252620473D

 69 70  0  0  1  0  0  0  0  0999 V2000
   -2.0171   -1.2506   -2.0029 C   0  0  0  0  0  0  0  0  0  0  0  0
   -0.8970   -1.0526   -1.0144 C   0  0  0  0  0  0  0  0  0  0  0  0
   -1.0229   -0.0935   -0.1129 C   0  0  0  0  0  0  0  0  0  0  0  0
    0.0180    0.2178    0.9229 C   0  0  0  0  0  0  0  0  0  0  0  0
    0.9913   -0.9547    1.0602 C   0  0  0  0  0  0  0  0  0  0  0  0
    1.4755   -1.3527   -0.3394 C   0  0  0  0  0  0  0  0  0  0  0  0
    0.2958   -1.9593   -1.1048 C   0  0  0  0  0  0  0  0  0  0  0  0
   -0.6651    0.4702    2.2685 C   0  0  0  0  0  0  0  0  0  0  0  0
    0.7896    1.4714    0.5059 C   0  0  0  0  0  0  0  0  0  0  0  0
   -2.2077    0.6852   -0.1257 C   0  0  0  0  0  0  0  0  0  0  0  0
   -3.4182    0.0825    0.0053 C   0  0  0  0  0  0  0  0  0  0  0  0
   -4.5869    0.8611    0.0816 C   0  0  0  0  0  0  0  0  0  0  0  0
   -5.8022    0.2559    0.2131 C   0  0  0  0  0  0  0  0  0  0  0  0
   -6.9681    1.0327    0.2893 C   0  0  0  0  0  0  0  0  0  0  0  0
   -8.1848    0.4268    0.4209 C   0  0  0  0  0  0  0  0  0  0  0  0
   -9.3506    1.2035    0.4971 C   0  0  0  0  0  0  0  0  0  0  0  0
  -10.5657    0.5984    0.6285 C   0  0  0  0  0  0  0  0  0  0  0  0
  -11.7464    1.3652    0.5562 C   0  0  0  0  0  0  0  0  0  0  0  0
  -11.6885    2.5464    0.2668 O   0  0  0  0  0  0  0  0  0  0  0  0
  -12.9419    0.7895    0.8080 O   0  0  0  0  0  0  0  0  0  0  0  0
  -14.0969    1.6260    0.7165 C   0  0  2  0  0  0  0  0  0  0  0  0
  -13.9342    2.5350    1.2956 H   0  0  0  0  0  0  0  0  0  0  0  0
  -15.3133    0.8791    1.2697 C   0  0  2  0  0  0  0  0  0  0  0  0
  -15.4524   -0.0502    0.7174 H   0  0  0  0  0  0  0  0  0  0  0  0
  -16.5575    1.7588    1.1130 C   0  0  1  0  0  0  0  0  0  0  0  0
  -16.4394    2.6662    1.7052 H   0  0  0  0  0  0  0  0  0  0  0  0
  -16.7249    2.1289   -0.3639 C   0  0  1  0  0  0  0  0  0  0  0  0
  -17.5762    2.8002   -0.4770 H   0  0  0  0  0  0  0  0  0  0  0  0
  -15.4539    2.8276   -0.8540 C   0  0  1  0  0  0  0  0  0  0  0  0
  -15.3090    3.7524   -0.2956 H   0  0  0  0  0  0  0  0  0  0  0  0
  -14.3306    1.9678   -0.6512 O   0  0  0  0  0  0  0  0  0  0  0  0
  -15.5876    3.1424   -2.3217 C   0  0  0  0  0  0  0  0  0  0  0  0
  -16.4319    3.9362   -2.7005 O   0  0  0  0  0  0  0  0  0  0  0  0
  -14.8514    2.6032   -3.1304 O   0  0  0  0  0  1  0  0  0  0  0  0
  -16.9460    0.9438   -1.1311 O   0  0  0  0  0  0  0  0  0  0  0  0
  -17.7094    1.0418    1.5614 O   0  0  0  0  0  0  0  0  0  0  0  0
  -15.1053    0.5860    2.6528 O   0  0  0  0  0  0  0  0  0  0  0  0
   -9.2601    2.7065    0.4337 C   0  0  0  0  0  0  0  0  0  0  0  0
   -4.4964    2.3641    0.0182 C   0  0  0  0  0  0  0  0  0  0  0  0
   -1.7290   -2.0084   -2.7315 H   0  0  0  0  0  0  0  0  0  0  0  0
   -2.9139   -1.5759   -1.4756 H   0  0  0  0  0  0  0  0  0  0  0  0
   -2.2186   -0.3107   -2.5167 H   0  0  0  0  0  0  0  0  0  0  0  0
    1.8429   -0.6541    1.6705 H   0  0  0  0  0  0  0  0  0  0  0  0
    0.4836   -1.7994    1.5259 H   0  0  0  0  0  0  0  0  0  0  0  0
    1.8422   -0.4707   -0.8645 H   0  0  0  0  0  0  0  0  0  0  0  0
    2.2738   -2.0900   -0.2547 H   0  0  0  0  0  0  0  0  0  0  0  0
    0.0448   -2.9304   -0.6780 H   0  0  0  0  0  0  0  0  0  0  0  0
    0.5738   -2.0876   -2.1509 H   0  0  0  0  0  0  0  0  0  0  0  0
   -1.1487   -0.4457    2.6079 H   0  0  0  0  0  0  0  0  0  0  0  0
    0.0796    0.7809    3.0013 H   0  0  0  0  0  0  0  0  0  0  0  0
   -1.4126    1.2553    2.1549 H   0  0  0  0  0  0  0  0  0  0  0  0
    0.0996    2.3107    0.4191 H   0  0  0  0  0  0  0  0  0  0  0  0
    1.5461    1.6991    1.2569 H   0  0  0  0  0  0  0  0  0  0  0  0
    1.2730    1.2975   -0.4555 H   0  0  0  0  0  0  0  0  0  0  0  0
   -2.1479    1.7575   -0.2395 H   0  0  0  0  0  0  0  0  0  0  0  0
   -3.4830   -0.9946    0.0507 H   0  0  0  0  0  0  0  0  0  0  0  0
   -5.8670   -0.8212    0.2586 H   0  0  0  0  0  0  0  0  0  0  0  0
   -6.9033    2.1098    0.2439 H   0  0  0  0  0  0  0  0  0  0  0  0
   -8.2496   -0.6503    0.4664 H   0  0  0  0  0  0  0  0  0  0  0  0
  -10.6234   -0.4682    0.7880 H   0  0  0  0  0  0  0  0  0  0  0  0
  -17.0608    1.1039   -2.0779 H   0  0  0  0  0  0  0  0  0  0  0  0
  -17.6676    0.7705    2.4886 H   0  0  0  0  0  0  0  0  0  0  0  0
  -14.3298    0.0350    2.8258 H   0  0  0  0  0  0  0  0  0  0  0  0
   -9.4265    3.0375   -0.5914 H   0  0  0  0  0  0  0  0  0  0  0  0
  -10.0175    3.1438    1.0842 H   0  0  0  0  0  0  0  0  0  0  0  0
   -8.2709    3.0251    0.7624 H   0  0  0  0  0  0  0  0  0  0  0  0
   -4.5665    2.6888   -1.0199 H   0  0  0  0  0  0  0  0  0  0  0  0
   -5.3135    2.8018    0.5918 H   0  0  0  0  0  0  0  0  0  0  0  0
   -3.5439    2.6887    0.4369 H   0  0  0  0  0  0  0  0  0  0  0  0
  1  2  1  0  0  0  0
  1 40  1  0  0  0  0
  1 41  1  0  0  0  0
  1 42  1  0  0  0  0
  2  7  1  0  0  0  0
  2  3  2  0  0  0  0
  3  4  1  0  0  0  0
  3 10  1  0  0  0  0
  4  5  1  0  0  0  0
  4  8  1  0  0  0  0
  4  9  1  0  0  0  0
  5  6  1  0  0  0  0
  5 43  1  0  0  0  0
  5 44  1  0  0  0  0
  6  7  1  0  0  0  0
  6 45  1  0  0  0  0
  6 46  1  0  0  0  0
  7 47  1  0  0  0  0
  7 48  1  0  0  0  0
  8 49  1  0  0  0  0
  8 50  1  0  0  0  0
  8 51  1  0  0  0  0
  9 52  1  0  0  0  0
  9 53  1  0  0  0  0
  9 54  1  0  0  0  0
 10 11  2  0  0  0  0
 10 55  1  0  0  0  0
 11 12  1  0  0  0  0
 11 56  1  0  0  0  0
 12 13  2  0  0  0  0
 12 39  1  0  0  0  0
 13 14  1  0  0  0  0
 13 57  1  0  0  0  0
 14 15  2  0  0  0  0
 14 58  1  0  0  0  0
 15 16  1  0  0  0  0
 15 59  1  0  0  0  0
 16 17  2  0  0  0  0
 16 38  1  0  0  0  0
 17 18  1  0  0  0  0
 17 60  1  0  0  0  0
 18 19  2  0  0  0  0
 18 20  1  0  0  0  0
 20 21  1  0  0  0  0
 21 22  1  1  0  0  0
 21 31  1  0  0  0  0
 21 23  1  0  0  0  0
 23 24  1  6  0  0  0
 23 25  1  0  0  0  0
 23 37  1  0  0  0  0
 25 26  1  1  0  0  0
 25 27  1  0  0  0  0
 25 36  1  0  0  0  0
 27 28  1  6  0  0  0
 27 29  1  0  0  0  0
 27 35  1  0  0  0  0
 29 30  1  1  0  0  0
 29 31  1  0  0  0  0
 29 32  1  0  0  0  0
 32 33  2  0  0  0  0
 32 34  1  0  0  0  0
 35 61  1  0  0  0  0
 36 62  1  0  0  0  0
 37 63  1  0  0  0  0
 38 64  1  0  0  0  0
 38 65  1  0  0  0  0
 38 66  1  0  0  0  0
 39 67  1  0  0  0  0
 39 68  1  0  0  0  0
 39 69  1  0  0  0  0
M  END
$$$$
ZINC22808476
 OpenBabel01252620473D

 64 67  0  0  1  0  0  0  0  0999 V2000
    2.1798    2.1394    1.4745 C   0  0  0  0  0  0  0  0  0  0  0  0
    1.9363    0.6341    1.3486 C   0  0  0  0  0  0  0  0  0  0  0  0
    2.4474    0.1444   -0.0091 C   0  0  0  0  0  0  0  0  0  0  0  0
    2.2551   -1.3464   -0.1063 C   0  0  0  0  0  0  0  0  0  0  0  0
    2.0718   -1.8627   -1.1977 O   0  5  0  0  0  0  0  0  0  0  0  0
    2.2849   -2.1427    1.0380 C   0  0  0  0  0  0  0  0  0  0  0  0
    2.4906   -1.5858    2.2998 C   0  0  0  0  0  0  0  0  0  0  0  0
    2.5105   -2.3085    3.2839 O   0  0  0  0  0  0  0  0  0  0  0  0
    2.6896   -0.1013    2.4604 C   0  0  0  0  0  0  0  0  0  0  0  0
    2.0954   -3.5963    0.9120 C   0  0  0  0  0  0  0  0  0  0  0  0
    2.1210   -4.3470    1.9678 N   0  0  0  0  0  0  0  0  0  0  0  0
    1.9323   -5.7944    1.8422 C   0  0  0  0  0  0  0  0  0  0  0  0
    3.2161   -6.5142    2.2603 C   0  0  0  0  0  0  0  0  0  0  0  0
    3.0269   -7.9655    2.1344 N   0  0  0  0  0  0  0  0  0  0  0  0
    2.0281   -8.4518    3.0964 C   0  0  0  0  0  0  0  0  0  0  0  0
    1.8024   -9.9500    2.8799 C   0  0  0  0  0  0  0  0  0  0  0  0
    3.0769  -10.6633    3.0425 N   0  0  2  0  0  0  0  0  0  0  0  0
    4.0757  -10.1770    2.0804 C   0  0  0  0  0  0  0  0  0  0  0  0
    4.3014   -8.6788    2.2969 C   0  0  0  0  0  0  0  0  0  0  0  0
    2.8877  -12.1146    2.9166 C   0  0  1  0  0  0  0  0  0  0  0  0
    2.4704  -12.3627    1.9407 H   0  0  0  0  0  0  0  0  0  0  0  0
    4.2206  -12.8573    3.1417 C   0  0  0  0  0  0  0  0  0  0  0  0
    3.9461  -13.7185    4.3552 C   0  0  0  0  0  0  0  0  0  0  0  0
    4.7406  -14.4718    4.8759 O   0  0  0  0  0  0  0  0  0  0  0  0
    2.6871  -13.5164    4.7631 N   0  0  0  0  0  0  0  0  0  0  0  0
    1.9970  -12.6336    4.0242 C   0  0  0  0  0  0  0  0  0  0  0  0
    0.8460  -12.3029    4.2128 O   0  0  0  0  0  0  0  0  0  0  0  0
    2.1333  -14.1746    5.8706 C   0  0  0  0  0  0  0  0  0  0  0  0
    1.1155  -15.1019    5.6909 C   0  0  0  0  0  0  0  0  0  0  0  0
    0.5716  -15.7496    6.7826 C   0  0  0  0  0  0  0  0  0  0  0  0
    1.0398  -15.4753    8.0556 C   0  0  0  0  0  0  0  0  0  0  0  0
    2.0547  -14.5511    8.2379 C   0  0  0  0  0  0  0  0  0  0  0  0
    2.6056  -13.9044    7.1473 C   0  0  0  0  0  0  0  0  0  0  0  0
    2.6399  -14.2092    9.8361 Cl  0  0  0  0  0  0  0  0  0  0  0  0
    0.3535  -16.2908    9.4259 Cl  0  0  0  0  0  0  0  0  0  0  0  0
    0.4384    0.3462    1.4680 C   0  0  0  0  0  0  0  0  0  0  0  0
    3.2469    2.3435    1.3861 H   0  0  0  0  0  0  0  0  0  0  0  0
    1.6431    2.6618    0.6825 H   0  0  0  0  0  0  0  0  0  0  0  0
    1.8229    2.4853    2.4446 H   0  0  0  0  0  0  0  0  0  0  0  0
    1.8897    0.6358   -0.8064 H   0  0  0  0  0  0  0  0  0  0  0  0
    3.5068    0.3816   -0.1061 H   0  0  0  0  0  0  0  0  0  0  0  0
    3.7522    0.1326    2.3961 H   0  0  0  0  0  0  0  0  0  0  0  0
    2.3053    0.2142    3.4304 H   0  0  0  0  0  0  0  0  0  0  0  0
    1.9350   -4.0377   -0.0606 H   0  0  0  0  0  0  0  0  0  0  0  0
    1.1120   -6.1111    2.4864 H   0  0  0  0  0  0  0  0  0  0  0  0
    1.6977   -6.0418    0.8069 H   0  0  0  0  0  0  0  0  0  0  0  0
    4.0364   -6.1975    1.6161 H   0  0  0  0  0  0  0  0  0  0  0  0
    3.4507   -6.2668    3.2956 H   0  0  0  0  0  0  0  0  0  0  0  0
    2.3874   -8.2811    4.1112 H   0  0  0  0  0  0  0  0  0  0  0  0
    1.0898   -7.9175    2.9478 H   0  0  0  0  0  0  0  0  0  0  0  0
    1.0834  -10.3189    3.6114 H   0  0  0  0  0  0  0  0  0  0  0  0
    1.4173  -10.1182    1.8742 H   0  0  0  0  0  0  0  0  0  0  0  0
    5.0141  -10.7113    2.2290 H   0  0  0  0  0  0  0  0  0  0  0  0
    3.7164  -10.3477    1.0656 H   0  0  0  0  0  0  0  0  0  0  0  0
    5.0205   -8.3099    1.5655 H   0  0  0  0  0  0  0  0  0  0  0  0
    4.6866   -8.5107    3.3027 H   0  0  0  0  0  0  0  0  0  0  0  0
    4.4649  -13.4769    2.2789 H   0  0  0  0  0  0  0  0  0  0  0  0
    5.0240  -12.1499    3.3471 H   0  0  0  0  0  0  0  0  0  0  0  0
    0.7492  -15.3163    4.6978 H   0  0  0  0  0  0  0  0  0  0  0  0
   -0.2203  -16.4705    6.6428 H   0  0  0  0  0  0  0  0  0  0  0  0
    3.4000  -13.1865    7.2891 H   0  0  0  0  0  0  0  0  0  0  0  0
   -0.0962    0.8677    0.6741 H   0  0  0  0  0  0  0  0  0  0  0  0
    0.2664   -0.7264    1.3781 H   0  0  0  0  0  0  0  0  0  0  0  0
    0.0781    0.6921    2.4368 H   0  0  0  0  0  0  0  0  0  0  0  0
  1  2  1  0  0  0  0
  1 37  1  0  0  0  0
  1 38  1  0  0  0  0
  1 39  1  0  0  0  0
  2  9  1  0  0  0  0
  2  3  1  0  0  0  0
  2 36  1  0  0  0  0
  3  4  1  0  0  0  0
  3 40  1  0  0  0  0
  3 41  1  0  0  0  0
  4  5  1  0  0  0  0
  4  6  2  0  0  0  0
  6  7  1  0  0  0  0
  6 10  1  0  0  0  0
  7  8  2  0  0  0  0
  7  9  1  0  0  0  0
  9 42  1  0  0  0  0
  9 43  1  0  0  0  0
 10 44  1  0  0  0  0
 10 11  2  0  0  0  0
 11 12  1  0  0  0  0
 12 13  1  0  0  0  0
 12 45  1  0  0  0  0
 12 46  1  0  0  0  0
 13 14  1  0  0  0  0
 13 47  1  0  0  0  0
 13 48  1  0  0  0  0
 14 19  1  0  0  0  0
 14 15  1  0  0  0  0
 15 16  1  0  0  0  0
 15 49  1  0  0  0  0
 15 50  1  0  0  0  0
 16 51  1  0  0  0  0
 16 52  1  0  0  0  0
 17 16  1  6  0  0  0
 17 18  1  0  0  0  0
 17 20  1  0  0  0  0
 18 19  1  0  0  0  0
 18 53  1  0  0  0  0
 18 54  1  0  0  0  0
 19 55  1  0  0  0  0
 19 56  1  0  0  0  0
 20 21  1  6  0  0  0
 20 26  1  0  0  0  0
 20 22  1  0  0  0  0
 22 23  1  0  0  0  0
 22 57  1  0  0  0  0
 22 58  1  0  0  0  0
 23 24  2  0  0  0  0
 23 25  1  0  0  0  0
 25 26  1  0  0  0  0
 25 28  1  0  0  0  0
 26 27  2  0  0  0  0
 28 33  2  0  0  0  0
 28 29  1  0  0  0  0
 29 30  2  0  0  0  0
 29 59  1  0  0  0  0
 30 31  1  0  0  0  0
 30 60  1  0  0  0  0
 31 32  2  0  0  0  0
 31 35  1  0  0  0  0
 32 33  1  0  0  0  0
 32 34  1  0  0  0  0
 33 61  1  0  0  0  0
 36 62  1  0  0  0  0
 36 63  1  0  0  0  0
 36 64  1  0  0  0  0
M  CHG  1   5  -1
M  END
$$$$
ZINC13461609
 OpenBabel01252620473D

 46 48  0  0  1  0  0  0  0  0999 V2000
   -5.3863    6.8517    0.5007 C   0  0  0  0  0  0  0  0  0  0  0  0
   -4.7741    6.0104    1.5908 C   0  0  0  0  0  0  0  0  0  0  0  0
   -4.1716    6.4503    2.6594 N   0  0  0  0  0  0  0  0  0  0  0  0
   -3.7700    5.4629    3.3774 N   0  0  0  0  0  0  0  0  0  0  0  0
   -4.0974    4.3300    2.8006 C   0  0  0  0  0  0  0  0  0  0  0  0
   -4.7530    4.6446    1.6448 N   0  0  0  0  0  0  0  0  0  0  0  0
   -5.2766    3.7749    0.7307 N   0  0  0  0  0  0  0  0  0  0  0  0
   -3.7610    2.7101    3.4067 S   0  0  0  0  0  0  0  0  0  0  0  0
   -3.0578    3.1091    4.9723 C   0  0  0  0  0  0  0  0  0  0  0  0
   -1.6816    3.0435    5.1547 C   0  0  0  0  0  0  0  0  0  0  0  0
   -1.1337    3.3610    6.3816 C   0  0  0  0  0  0  0  0  0  0  0  0
   -1.9536    3.7348    7.4311 C   0  0  0  0  0  0  0  0  0  0  0  0
   -3.3237    3.7961    7.2546 C   0  0  0  0  0  0  0  0  0  0  0  0
   -3.8783    3.4845    6.0288 C   0  0  0  0  0  0  0  0  0  0  0  0
   -5.3451    3.5509    5.8406 N   0  0  0  0  0  4  0  0  0  0  0  0
   -6.0637    3.8801    6.7673 O   0  0  0  0  0  0  0  0  0  0  0  0
   -5.8334    3.2763    4.7591 O   0  5  0  0  0  0  0  0  0  0  0  0
   -1.2504    4.1332    8.9969 S   0  0  0  0  0  0  0  0  0  0  0  0
    0.0927    4.5265    8.7507 O   0  0  0  0  0  0  0  0  0  0  0  0
   -2.1826    4.9780    9.6576 O   0  0  0  0  0  0  0  0  0  0  0  0
   -1.1796    2.7299    9.8732 N   0  0  0  0  0  0  0  0  0  0  0  0
   -2.3000    2.3278   10.7344 C   0  0  0  0  0  0  0  0  0  0  0  0
   -1.7743    2.0650   12.1444 C   0  0  0  0  0  0  0  0  0  0  0  0
   -0.6338    1.0466   12.0798 C   0  0  1  0  0  0  0  0  0  0  0  0
    0.5094    1.6116   11.2336 C   0  0  0  0  0  0  0  0  0  0  0  0
    0.0074    1.8663    9.8089 C   0  0  0  0  0  0  0  0  0  0  0  0
   -0.1345    0.7628   13.4730 C   0  0  0  0  0  0  0  0  0  0  0  0
    1.0172    0.9891   13.7598 O   0  0  0  0  0  0  0  0  0  0  0  0
   -4.6386    7.0525   -0.2666 H   0  0  0  0  0  0  0  0  0  0  0  0
   -5.7365    7.7939    0.9222 H   0  0  0  0  0  0  0  0  0  0  0  0
   -6.2267    6.3171    0.0579 H   0  0  0  0  0  0  0  0  0  0  0  0
   -4.5955    3.5390    0.0247 H   0  0  0  0  0  0  0  0  0  0  0  0
   -5.6311    2.9454    1.1827 H   0  0  0  0  0  0  0  0  0  0  0  0
   -1.0413    2.7478    4.3369 H   0  0  0  0  0  0  0  0  0  0  0  0
   -0.0641    3.3135    6.5232 H   0  0  0  0  0  0  0  0  0  0  0  0
   -3.9609    4.0877    8.0764 H   0  0  0  0  0  0  0  0  0  0  0  0
   -3.0419    3.1258   10.7652 H   0  0  0  0  0  0  0  0  0  0  0  0
   -2.7547    1.4183   10.3416 H   0  0  0  0  0  0  0  0  0  0  0  0
   -2.5785    1.6717   12.7664 H   0  0  0  0  0  0  0  0  0  0  0  0
   -1.4057    2.9974   12.5722 H   0  0  0  0  0  0  0  0  0  0  0  0
   -0.9969    0.1229   11.6292 H   0  0  0  0  0  0  0  0  0  0  0  0
    1.3308    0.8955   11.2073 H   0  0  0  0  0  0  0  0  0  0  0  0
    0.8565    2.5482   11.6700 H   0  0  0  0  0  0  0  0  0  0  0  0
   -0.2553    0.9185    9.3391 H   0  0  0  0  0  0  0  0  0  0  0  0
    0.7875    2.3599    9.2294 H   0  0  0  0  0  0  0  0  0  0  0  0
   -0.9693    0.2587   14.3954 O   0  0  0  0  0  1  0  0  0  0  0  0
  1  2  1  0  0  0  0
  1 29  1  0  0  0  0
  1 30  1  0  0  0  0
  1 31  1  0  0  0  0
  2  6  1  0  0  0  0
  2  3  2  0  0  0  0
  3  4  1  0  0  0  0
  4  5  2  0  0  0  0
  5  6  1  0  0  0  0
  5  8  1  0  0  0  0
  6  7  1  0  0  0  0
  7 32  1  0  0  0  0
  7 33  1  0  0  0  0
  8  9  1  0  0  0  0
  9 14  2  0  0  0  0
  9 10  1  0  0  0  0
 10 11  2  0  0  0  0
 10 34  1  0  0  0  0
 11 12  1  0  0  0  0
 11 35  1  0  0  0  0
 12 13  2  0  0  0  0
 12 18  1  0  0  0  0
 13 14  1  0  0  0  0
 13 36  1  0  0  0  0
 14 15  1  0  0  0  0
 15 16  2  0  0  0  0
 15 17  1  0  0  0  0
 18 19  2  0  0  0  0
 18 20  2  0  0  0  0
 18 21  1  0  0  0  0
 21 26  1  0  0  0  0
 21 22  1  0  0  0  0
 22 23  1  0  0  0  0
 22 37  1  0  0  0  0
 22 38  1  0  0  0  0
 23 24  1  0  0  0  0
 23 39  1  0  0  0  0
 23 40  1  0  0  0  0
 24 25  1  0  0  0  0
 24 27  1  0  0  0  0
 24 41  1  6  0  0  0
 25 26  1  0  0  0  0
 25 42  1  0  0  0  0
 25 43  1  0  0  0  0
 26 44  1  0  0  0  0
 26 45  1  0  0  0  0
 27 28  2  0  0  0  0
 27 46  1  0  0  0  0
M  CHG  1  17  -1
M  END
$$$$
ZINC09424582
 OpenBabel01252620473D

 51 53  0  0  1  0  0  0  0  0999 V2000
    3.3886    2.9170    2.5042 C   0  0  0  0  0  0  0  0  0  0  0  0
    3.8298    3.4820    3.6862 C   0  0  0  0  0  0  0  0  0  0  0  0
    4.3239    4.7730    3.6930 C   0  0  0  0  0  0  0  0  0  0  0  0
    4.3818    5.4971    2.5169 C   0  0  0  0  0  0  0  0  0  0  0  0
    3.9459    4.9301    1.3339 C   0  0  0  0  0  0  0  0  0  0  0  0
    3.4517    3.6391    1.3271 C   0  0  0  0  0  0  0  0  0  0  0  0
    2.9761    3.0211    0.0376 C   0  0  2  0  0  0  0  0  0  0  0  0
    3.3422    3.6410   -0.7941 H   0  0  0  0  0  0  0  0  0  0  0  0
    1.4699    2.9028    0.0376 C   0  0  0  0  0  0  0  0  0  0  0  0
    1.1816    1.5845   -0.0697 C   0  0  0  0  0  0  0  0  0  0  0  0
    2.4425    0.8170   -0.1502 C   0  0  0  0  0  0  0  0  0  0  0  0
    2.5178   -0.3910   -0.2564 O   0  0  0  0  0  0  0  0  0  0  0  0
    3.4942    1.6537   -0.0878 N   0  0  0  0  0  0  0  0  0  0  0  0
    4.9067    1.2680   -0.1361 C   0  0  0  0  0  0  0  0  0  0  0  0
    5.3838    1.2600   -1.5897 C   0  0  0  0  0  0  0  0  0  0  0  0
    5.3366    2.5886   -2.1139 O   0  0  0  0  0  0  0  0  0  0  0  0
    5.7644    2.6926   -3.4734 C   0  0  0  0  0  0  0  0  0  0  0  0
    5.6726    4.1510   -3.9267 C   0  0  0  0  0  0  0  0  0  0  0  0
    6.5977    4.9418   -3.1777 O   0  0  0  0  0  0  0  0  0  0  0  0
   -0.0624    1.0544   -0.1035 O   0  5  0  0  0  0  0  0  0  0  0  0
    0.5065    4.0031    0.1373 C   0  0  0  0  0  0  0  0  0  0  0  0
   -0.2098    4.0976    1.1162 O   0  0  0  0  0  0  0  0  0  0  0  0
    0.4053    4.9981   -0.9517 C   0  0  0  0  0  0  0  0  0  0  0  0
    1.1433    4.8309   -2.1254 C   0  0  0  0  0  0  0  0  0  0  0  0
    1.0394    5.7597   -3.1398 C   0  0  0  0  0  0  0  0  0  0  0  0
    0.2153    6.8616   -2.9916 C   0  0  0  0  0  0  0  0  0  0  0  0
   -0.5141    7.0367   -1.8286 C   0  0  0  0  0  0  0  0  0  0  0  0
   -0.4244    6.1124   -0.8088 C   0  0  0  0  0  0  0  0  0  0  0  0
    0.1132    7.8572   -4.0822 N   0  0  0  0  0  4  0  0  0  0  0  0
   -0.6116    8.8277   -3.9548 O   0  0  0  0  0  0  0  0  0  0  0  0
    0.7540    7.7058   -5.1069 O   0  5  0  0  0  0  0  0  0  0  0  0
    4.7915    5.3798    4.9595 N   0  0  0  0  0  4  0  0  0  0  0  0
    5.2273    6.5171    4.9654 O   0  0  0  0  0  0  0  0  0  0  0  0
    4.7406    4.7417    5.9957 O   0  5  0  0  0  0  0  0  0  0  0  0
    2.9985    1.9099    2.4996 H   0  0  0  0  0  0  0  0  0  0  0  0
    3.7850    2.9161    4.6049 H   0  0  0  0  0  0  0  0  0  0  0  0
    4.7678    6.5057    2.5222 H   0  0  0  0  0  0  0  0  0  0  0  0
    3.9911    5.4959    0.4151 H   0  0  0  0  0  0  0  0  0  0  0  0
    5.5036    1.9890    0.4418 H   0  0  0  0  0  0  0  0  0  0  0  0
    5.0274    0.2632    0.2949 H   0  0  0  0  0  0  0  0  0  0  0  0
    6.4168    0.8846   -1.6345 H   0  0  0  0  0  0  0  0  0  0  0  0
    4.7302    0.6069   -2.1866 H   0  0  0  0  0  0  0  0  0  0  0  0
    6.8054    2.3472   -3.5576 H   0  0  0  0  0  0  0  0  0  0  0  0
    5.1187    2.0695   -4.1097 H   0  0  0  0  0  0  0  0  0  0  0  0
    5.9157    4.2181   -4.9974 H   0  0  0  0  0  0  0  0  0  0  0  0
    4.6514    4.5237   -3.7585 H   0  0  0  0  0  0  0  0  0  0  0  0
    6.6751    6.0229   -3.3653 H   0  0  0  0  0  0  0  0  0  0  0  0
    1.7905    3.9740   -2.2404 H   0  0  0  0  0  0  0  0  0  0  0  0
    1.6059    5.6292   -4.0499 H   0  0  0  0  0  0  0  0  0  0  0  0
   -1.1554    7.8988   -1.7195 H   0  0  0  0  0  0  0  0  0  0  0  0
   -0.9942    6.2502    0.0982 H   0  0  0  0  0  0  0  0  0  0  0  0
  1  6  2  0  0  0  0
  1  2  1  0  0  0  0
  1 35  1  0  0  0  0
  2  3  2  0  0  0  0
  2 36  1  0  0  0  0
  3  4  1  0  0  0  0
  3 32  1  0  0  0  0
  4  5  2  0  0  0  0
  4 37  1  0  0  0  0
  5  6  1  0  0  0  0
  5 38  1  0  0  0  0
  6  7  1  0  0  0  0
  7  8  1  6  0  0  0
  7 13  1  0  0  0  0
  7  9  1  0  0  0  0
  9 10  2  0  0  0  0
  9 21  1  0  0  0  0
 10 11  1  0  0  0  0
 10 20  1  0  0  0  0
 11 12  2  0  0  0  0
 11 13  1  0  0  0  0
 13 14  1  0  0  0  0
 14 15  1  0  0  0  0
 14 39  1  0  0  0  0
 14 40  1  0  0  0  0
 15 16  1  0  0  0  0
 15 41  1  0  0  0  0
 15 42  1  0  0  0  0
 16 17  1  0  0  0  0
 17 18  1  0  0  0  0
 17 43  1  0  0  0  0
 17 44  1  0  0  0  0
 18 19  1  0  0  0  0
 18 45  1  0  0  0  0
 18 46  1  0  0  0  0
 19 47  1  0  0  0  0
 21 22  2  0  0  0  0
 21 23  1  0  0  0  0
 23 28  2  0  0  0  0
 23 24  1  0  0  0  0
 24 25  2  0  0  0  0
 24 48  1  0  0  0  0
 25 26  1  0  0  0  0
 25 49  1  0  0  0  0
 26 27  2  0  0  0  0
 26 29  1  0  0  0  0
 27 28  1  0  0  0  0
 27 50  1  0  0  0  0
 28 51  1  0  0  0  0
 29 30  2  0  0  0  0
 29 31  1  0  0  0  0
 32 33  2  0  0  0  0
 32 34  1  0  0  0  0
M  CHG  3  20  -1  31  -1  34  -1
M  END
$$$$
ZINC58510848
 OpenBabel01252620473D

 40 41  0  0  0  0  0  0  0  0999 V2000
    2.0130    1.4335   -1.3866 C   0  0  0  0  0  0  0  0  0  0  0  0
    1.4605    0.0806   -1.0186 C   0  0  0  0  0  0  0  0  0  0  0  0
    1.1758   -0.9055   -1.8855 C   0  0  0  0  0  0  0  0  0  0  0  0
    0.6670   -2.0276   -1.0847 C   0  0  0  0  0  0  0  0  0  0  0  0
    0.6945   -1.5965    0.2309 C   0  0  0  0  0  0  0  0  0  0  0  0
    1.1756   -0.3388    0.2488 N   0  0  0  0  0  0  0  0  0  0  0  0
    1.3636    0.4668    1.4579 C   0  0  0  0  0  0  0  0  0  0  0  0
    0.0867    1.2586    1.7468 C   0  0  0  0  0  0  0  0  0  0  0  0
    0.2701    2.0445    2.9261 O   0  0  0  0  0  0  0  0  0  0  0  0
   -0.8701    2.8269    3.2864 C   0  0  0  0  0  0  0  0  0  0  0  0
    0.2661   -2.3972    1.4335 C   0  0  0  0  0  0  0  0  0  0  0  0
    0.2227   -3.3306   -1.5759 C   0  0  0  0  0  0  0  0  0  0  0  0
   -0.6487   -3.4051   -2.6446 C   0  0  0  0  0  0  0  0  0  0  0  0
   -0.9118   -4.6676   -3.2672 C   0  0  0  0  0  0  0  0  0  0  0  0
   -1.1206   -5.6691   -3.7610 N   0  0  0  0  0  0  0  0  0  0  0  0
   -1.3052   -2.1902   -3.1425 C   0  0  0  0  0  0  0  0  0  0  0  0
   -1.1492   -1.0195   -2.4847 O   0  5  0  0  0  0  0  0  0  0  0  0
   -2.0460   -2.2406   -4.2298 N   0  0  0  0  0  0  0  0  0  0  0  0
   -2.6531   -1.1171   -4.6902 C   0  0  0  0  0  0  0  0  0  0  0  0
   -2.5846    0.0866   -4.1472 N   0  0  0  0  0  0  0  0  0  0  0  0
   -3.3035    0.9450   -4.8666 C   0  0  0  0  0  0  0  0  0  0  0  0
   -3.8446    0.3185   -5.8777 N   0  0  0  0  0  0  0  0  0  0  0  0
   -3.4386   -1.0236   -5.7985 N   0  0  0  0  0  0  0  0  0  0  0  0
    3.1023    1.3948   -1.3812 H   0  0  0  0  0  0  0  0  0  0  0  0
    1.6643    1.7101   -2.3816 H   0  0  0  0  0  0  0  0  0  0  0  0
    1.6722    2.1742   -0.6632 H   0  0  0  0  0  0  0  0  0  0  0  0
    1.2970   -0.8788   -2.9583 H   0  0  0  0  0  0  0  0  0  0  0  0
    1.5833   -0.1885    2.3007 H   0  0  0  0  0  0  0  0  0  0  0  0
    2.1935    1.1576    1.3088 H   0  0  0  0  0  0  0  0  0  0  0  0
   -0.1329    1.9140    0.9040 H   0  0  0  0  0  0  0  0  0  0  0  0
   -0.7432    0.5679    1.8959 H   0  0  0  0  0  0  0  0  0  0  0  0
   -1.7199    2.1687    3.4674 H   0  0  0  0  0  0  0  0  0  0  0  0
   -0.6505    3.3940    4.1910 H   0  0  0  0  0  0  0  0  0  0  0  0
   -1.1096    3.5148    2.4755 H   0  0  0  0  0  0  0  0  0  0  0  0
    1.1192   -2.9530    1.8227 H   0  0  0  0  0  0  0  0  0  0  0  0
   -0.1104   -1.7235    2.2032 H   0  0  0  0  0  0  0  0  0  0  0  0
   -0.5204   -3.0943    1.1445 H   0  0  0  0  0  0  0  0  0  0  0  0
    0.5758   -4.2350   -1.1030 H   0  0  0  0  0  0  0  0  0  0  0  0
   -3.4219    1.9961   -4.6483 H   0  0  0  0  0  0  0  0  0  0  0  0
   -3.6725   -1.7401   -6.4090 H   0  0  0  0  0  0  0  0  0  0  0  0
  1  2  1  0  0  0  0
  1 24  1  0  0  0  0
  1 25  1  0  0  0  0
  1 26  1  0  0  0  0
  2  6  1  0  0  0  0
  2  3  2  0  0  0  0
  3  4  1  0  0  0  0
  3 27  1  0  0  0  0
  4  5  2  0  0  0  0
  4 12  1  0  0  0  0
  5  6  1  0  0  0  0
  5 11  1  0  0  0  0
  6  7  1  0  0  0  0
  7  8  1  0  0  0  0
  7 28  1  0  0  0  0
  7 29  1  0  0  0  0
  8  9  1  0  0  0  0
  8 30  1  0  0  0  0
  8 31  1  0  0  0  0
  9 10  1  0  0  0  0
 10 32  1  0  0  0  0
 10 33  1  0  0  0  0
 10 34  1  0  0  0  0
 11 35  1  0  0  0  0
 11 36  1  0  0  0  0
 11 37  1  0  0  0  0
 12 13  2  0  0  0  0
 12 38  1  0  0  0  0
 13 14  1  0  0  0  0
 13 16  1  0  0  0  0
 14 15  3  0  0  0  0
 16 17  1  0  0  0  0
 16 18  2  0  0  0  0
 18 19  1  0  0  0  0
 19 20  2  0  0  0  0
 19 23  1  0  0  0  0
 20 21  1  0  0  0  0
 21 39  1  0  0  0  0
 21 22  2  0  0  0  0
 22 23  1  0  0  0  0
 23 40  1  0  0  0  0
M  CHG  1  17  -1
M  END
$$$$
ZINC03122344
 OpenBabel01252620473D

 19 18  0  0  1  0  0  0  0  0999 V2000
   -0.0187    1.5258    0.0104 C   0  0  0  0  0  0  0  0  0  0  0  0
    0.0021   -0.0041    0.0020 C   0  0  0  0  0  0  0  0  0  0  0  0
   -1.3386   -0.4987    0.0122 O   0  0  0  0  0  0  0  0  0  0  0  0
   -1.4968   -1.8357    0.0065 C   0  0  0  0  0  0  0  0  0  0  0  0
   -0.5233   -2.5627   -0.0067 O   0  0  0  0  0  0  0  0  0  0  0  0
   -2.7351   -2.3678    0.0155 N   0  0  0  0  0  0  0  0  0  0  0  0
   -2.9073   -3.8226    0.0093 C   0  0  2  0  0  0  0  0  0  0  0  0
   -4.0735   -4.1942   -0.9088 C   0  0  0  0  0  0  0  0  0  0  0  0
   -5.7200   -3.3421   -0.2546 Br  0  0  0  0  0  0  0  0  0  0  0  0
   -3.6942   -3.5714   -2.7346 Br  0  0  0  0  0  0  0  0  0  0  0  0
   -4.3046   -6.1466   -0.9171 Br  0  0  0  0  0  0  0  0  0  0  0  0
   -3.1830   -4.2752    1.3364 O   0  0  0  0  0  1  0  0  0  0  0  0
    1.0039    1.9031    0.0027 H   0  0  0  0  0  0  0  0  0  0  0  0
   -0.5459    1.8868   -0.8726 H   0  0  0  0  0  0  0  0  0  0  0  0
   -0.5289    1.8773    0.9072 H   0  0  0  0  0  0  0  0  0  0  0  0
    0.5123   -0.3556   -0.8948 H   0  0  0  0  0  0  0  0  0  0  0  0
    0.5293   -0.3651    0.8851 H   0  0  0  0  0  0  0  0  0  0  0  0
   -3.5123   -1.7874    0.0260 H   0  0  0  0  0  0  0  0  0  0  0  0
   -1.9945   -4.2950   -0.3535 H   0  0  0  0  0  0  0  0  0  0  0  0
  1  2  1  0  0  0  0
  1 13  1  0  0  0  0
  1 14  1  0  0  0  0
  1 15  1  0  0  0  0
  2  3  1  0  0  0  0
  2 16  1  0  0  0  0
  2 17  1  0  0  0  0
  3  4  1  0  0  0  0
  4  5  2  0  0  0  0
  4  6  1  0  0  0  0
  6  7  1  0  0  0  0
  6 18  1  0  0  0  0
  7  8  1  0  0  0  0
  7 12  1  0  0  0  0
  7 19  1  6  0  0  0
  8  9  1  0  0  0  0
  8 10  1  0  0  0  0
  8 11  1  0  0  0  0
M  END
$$$$
ZINC16932013
 OpenBabel01252620473D

 52 54  0  0  1  0  0  0  0  0999 V2000
   -0.4028   -0.2078    0.4732 C   0  0  0  0  0  0  0  0  0  0  0  0
   -0.3944   -1.7073    0.1694 C   0  0  0  0  0  0  0  0  0  0  0  0
   -1.8266   -2.1859   -0.0764 C   0  0  2  0  0  0  0  0  0  0  0  0
   -2.4504   -1.9188    0.7766 H   0  0  0  0  0  0  0  0  0  0  0  0
   -1.8327   -3.6824   -0.2541 C   0  0  0  0  0  0  0  0  0  0  0  0
   -1.5171   -4.4078    0.6736 O   0  0  0  0  0  0  0  0  0  0  0  0
   -2.1531   -4.1677   -1.3257 O   0  0  0  0  0  1  0  0  0  0  0  0
   -2.3409   -1.5641   -1.2558 O   0  0  0  0  0  0  0  0  0  0  0  0
   -3.6911   -1.4402   -1.3494 C   0  0  0  0  0  0  0  0  0  0  0  0
   -4.5044   -1.9236   -0.3321 C   0  0  0  0  0  0  0  0  0  0  0  0
   -5.8792   -1.8017   -0.4202 C   0  0  0  0  0  0  0  0  0  0  0  0
   -6.4541   -1.1989   -1.5194 C   0  0  0  0  0  0  0  0  0  0  0  0
   -5.6443   -0.7080   -2.5496 C   0  0  0  0  0  0  0  0  0  0  0  0
   -4.2539   -0.8277   -2.4549 C   0  0  0  0  0  0  0  0  0  0  0  0
   -6.2518   -0.0645   -3.7234 C   0  0  0  0  0  0  0  0  0  0  0  0
   -7.5531    0.3165   -3.6904 C   0  0  0  0  0  0  0  0  0  0  0  0
   -8.4121    0.8153   -4.7837 C   0  0  0  0  0  0  0  0  0  0  0  0
   -7.9903    0.9406   -5.9183 O   0  0  0  0  0  0  0  0  0  0  0  0
   -9.6609    1.1189   -4.4724 N   0  0  0  0  0  0  0  0  0  0  0  0
  -10.1199    0.9707   -3.1840 C   0  0  0  0  0  0  0  0  0  0  0  0
  -11.3223    1.2247   -2.7088 N   0  0  0  0  0  0  0  0  0  0  0  0
  -11.5747    1.0726   -1.3815 C   0  0  0  0  0  0  0  0  0  0  0  0
  -10.7677    1.7089   -0.4327 C   0  0  0  0  0  0  0  0  0  0  0  0
  -11.0285    1.5509    0.9095 C   0  0  0  0  0  0  0  0  0  0  0  0
  -12.0893    0.7624    1.3347 C   0  0  0  0  0  0  0  0  0  0  0  0
  -12.8982    0.1258    0.4214 C   0  0  0  0  0  0  0  0  0  0  0  0
  -12.6582    0.2752   -0.9490 C   0  0  0  0  0  0  0  0  0  0  0  0
  -13.5206   -0.3959   -1.9289 C   0  0  0  0  0  0  0  0  0  0  0  0
  -14.4577   -1.0855   -1.5486 O   0  0  0  0  0  0  0  0  0  0  0  0
  -13.3026   -0.2660   -3.1264 O   0  0  0  0  0  1  0  0  0  0  0  0
   -8.6927    0.3430   -2.3141 S   0  0  0  0  0  0  0  0  0  0  0  0
  -10.5653    1.6191   -5.5107 C   0  0  0  0  0  0  0  0  0  0  0  0
  -11.2842    0.4412   -6.1715 C   0  0  0  0  0  0  0  0  0  0  0  0
    0.6176    0.1332    0.6483 H   0  0  0  0  0  0  0  0  0  0  0  0
   -0.8260    0.3322   -0.3738 H   0  0  0  0  0  0  0  0  0  0  0  0
   -1.0060   -0.0205    1.3616 H   0  0  0  0  0  0  0  0  0  0  0  0
    0.2088   -1.8946   -0.7190 H   0  0  0  0  0  0  0  0  0  0  0  0
    0.0289   -2.2473    1.0164 H   0  0  0  0  0  0  0  0  0  0  0  0
   -4.0610   -2.3972    0.5313 H   0  0  0  0  0  0  0  0  0  0  0  0
   -6.5050   -2.1803    0.3745 H   0  0  0  0  0  0  0  0  0  0  0  0
   -7.5281   -1.1061   -1.5851 H   0  0  0  0  0  0  0  0  0  0  0  0
   -3.6222   -0.4477   -3.2442 H   0  0  0  0  0  0  0  0  0  0  0  0
   -5.6620    0.1048   -4.6121 H   0  0  0  0  0  0  0  0  0  0  0  0
   -9.9397    2.3238   -0.7532 H   0  0  0  0  0  0  0  0  0  0  0  0
  -10.4024    2.0442    1.6382 H   0  0  0  0  0  0  0  0  0  0  0  0
  -12.2811    0.6474    2.3913 H   0  0  0  0  0  0  0  0  0  0  0  0
  -13.7209   -0.4854    0.7622 H   0  0  0  0  0  0  0  0  0  0  0  0
  -11.3000    2.2873   -5.0615 H   0  0  0  0  0  0  0  0  0  0  0  0
   -9.9915    2.1621   -6.2616 H   0  0  0  0  0  0  0  0  0  0  0  0
  -11.8580   -0.1019   -5.4206 H   0  0  0  0  0  0  0  0  0  0  0  0
  -11.9571    0.8133   -6.9440 H   0  0  0  0  0  0  0  0  0  0  0  0
  -10.5495   -0.2271   -6.6207 H   0  0  0  0  0  0  0  0  0  0  0  0
  1  2  1  0  0  0  0
  1 34  1  0  0  0  0
  1 35  1  0  0  0  0
  1 36  1  0  0  0  0
  2  3  1  0  0  0  0
  2 37  1  0  0  0  0
  2 38  1  0  0  0  0
  3  4  1  1  0  0  0
  3  5  1  0  0  0  0
  3  8  1  0  0  0  0
  5  6  2  0  0  0  0
  5  7  1  0  0  0  0
  8  9  1  0  0  0  0
  9 14  2  0  0  0  0
  9 10  1  0  0  0  0
 10 11  2  0  0  0  0
 10 39  1  0  0  0  0
 11 12  1  0  0  0  0
 11 40  1  0  0  0  0
 12 13  2  0  0  0  0
 12 41  1  0  0  0  0
 13 14  1  0  0  0  0
 13 15  1  0  0  0  0
 14 42  1  0  0  0  0
 15 16  2  0  0  0  0
 15 43  1  0  0  0  0
 16 31  1  0  0  0  0
 16 17  1  0  0  0  0
 17 18  2  0  0  0  0
 17 19  1  0  0  0  0
 19 20  1  0  0  0  0
 19 32  1  0  0  0  0
 20 21  2  0  0  0  0
 20 31  1  0  0  0  0
 21 22  1  0  0  0  0
 22 27  2  0  0  0  0
 22 23  1  0  0  0  0
 23 24  2  0  0  0  0
 23 44  1  0  0  0  0
 24 25  1  0  0  0  0
 24 45  1  0  0  0  0
 25 26  2  0  0  0  0
 25 46  1  0  0  0  0
 26 27  1  0  0  0  0
 26 47  1  0  0  0  0
 27 28  1  0  0  0  0
 28 29  2  0  0  0  0
 28 30  1  0  0  0  0
 32 33  1  0  0  0  0
 32 48  1  0  0  0  0
 32 49  1  0  0  0  0
 33 50  1  0  0  0  0
 33 51  1  0  0  0  0
 33 52  1  0  0  0  0
M  END
$$$$
ZINC66579124
 OpenBabel01252620473D

 50 52  0  0  0  0  0  0  0  0999 V2000
   -0.0187    1.5028    0.0104 C   0  0  0  0  0  0  0  0  0  0  0  0
    0.0019   -0.0041    0.0020 C   0  0  0  0  0  0  0  0  0  0  0  0
   -0.0196   -0.6868   -1.1997 C   0  0  0  0  0  0  0  0  0  0  0  0
   -0.0009   -2.0666   -1.2152 C   0  0  0  0  0  0  0  0  0  0  0  0
    0.0392   -2.7776   -0.0148 C   0  0  0  0  0  0  0  0  0  0  0  0
    0.0608   -2.0897    1.1973 C   0  0  0  0  0  0  0  0  0  0  0  0
    0.0481   -0.7029    1.2026 C   0  0  0  0  0  0  0  0  0  0  0  0
    0.0758   -0.0086    2.4144 N   0  0  0  0  0  2  0  0  0  0  0  0
    0.1308   -0.8413    3.8448 S   0  0  0  0  0  0  0  0  0  0  0  0
   -1.0933   -1.5613    3.8924 O   0  0  0  0  0  0  0  0  0  0  0  0
    1.3746   -1.5281    3.8169 O   0  0  0  0  0  0  0  0  0  0  0  0
    0.1530    0.4393    5.1293 C   0  0  0  0  0  0  0  0  0  0  0  0
    0.2041   -0.2221    6.5080 C   0  0  0  0  0  0  0  0  0  0  0  0
    1.5271   -0.9746    6.6639 C   0  0  0  0  0  0  0  0  0  0  0  0
    0.0971    0.8515    7.5929 C   0  0  0  0  0  0  0  0  0  0  0  0
    0.0583   -4.2569   -0.0289 C   0  0  0  0  0  0  0  0  0  0  0  0
    0.4291   -5.0465    0.9568 N   0  0  0  0  0  0  0  0  0  0  0  0
    0.3100   -6.2765    0.5969 N   0  0  0  0  0  0  0  0  0  0  0  0
   -0.1423   -6.3406   -0.6241 C   0  0  0  0  0  0  0  0  0  0  0  0
   -0.3108   -5.0656   -1.0641 N   0  0  0  0  0  0  0  0  0  0  0  0
   -0.7772   -4.6552   -2.3884 C   0  0  0  0  0  0  0  0  0  0  0  0
   -1.6903   -5.7417   -2.9638 C   0  0  0  0  0  0  0  0  0  0  0  0
   -0.8551   -6.7582   -3.7405 C   0  0  0  0  0  0  0  0  0  0  0  0
    0.1510   -7.4414   -2.8195 C   0  0  0  0  0  0  0  0  0  0  0  0
   -0.4426   -7.5845   -1.4202 C   0  0  0  0  0  0  0  0  0  0  0  0
    1.0034    1.8802   -0.0189 H   0  0  0  0  0  0  0  0  0  0  0  0
   -0.5643    1.8635   -0.8616 H   0  0  0  0  0  0  0  0  0  0  0  0
   -0.5101    1.8544    0.9175 H   0  0  0  0  0  0  0  0  0  0  0  0
   -0.0513   -0.1386   -2.1297 H   0  0  0  0  0  0  0  0  0  0  0  0
   -0.0178   -2.5963   -2.1562 H   0  0  0  0  0  0  0  0  0  0  0  0
    0.0919   -2.6347    2.1291 H   0  0  0  0  0  0  0  0  0  0  0  0
    1.0309    1.0716    4.9969 H   0  0  0  0  0  0  0  0  0  0  0  0
   -0.7481    1.0477    5.0513 H   0  0  0  0  0  0  0  0  0  0  0  0
   -0.6258   -0.9219    6.6063 H   0  0  0  0  0  0  0  0  0  0  0  0
    2.3569   -0.2748    6.5656 H   0  0  0  0  0  0  0  0  0  0  0  0
    1.5635   -1.4458    7.6461 H   0  0  0  0  0  0  0  0  0  0  0  0
    1.6033   -1.7394    5.8910 H   0  0  0  0  0  0  0  0  0  0  0  0
   -0.8454    1.3876    7.4818 H   0  0  0  0  0  0  0  0  0  0  0  0
    0.1335    0.3803    8.5751 H   0  0  0  0  0  0  0  0  0  0  0  0
    0.9269    1.5513    7.4946 H   0  0  0  0  0  0  0  0  0  0  0  0
   -1.3318   -3.7205   -2.3052 H   0  0  0  0  0  0  0  0  0  0  0  0
    0.0791   -4.5131   -3.0476 H   0  0  0  0  0  0  0  0  0  0  0  0
   -2.2110   -6.2463   -2.1499 H   0  0  0  0  0  0  0  0  0  0  0  0
   -2.4201   -5.2853   -3.6325 H   0  0  0  0  0  0  0  0  0  0  0  0
   -1.5151   -7.5103   -4.1728 H   0  0  0  0  0  0  0  0  0  0  0  0
   -0.3203   -6.2473   -4.5411 H   0  0  0  0  0  0  0  0  0  0  0  0
    0.3916   -8.4287   -3.2138 H   0  0  0  0  0  0  0  0  0  0  0  0
    1.0594   -6.8414   -2.7659 H   0  0  0  0  0  0  0  0  0  0  0  0
   -0.0078   -8.4506   -0.9212 H   0  0  0  0  0  0  0  0  0  0  0  0
   -1.5219   -7.7132   -1.5022 H   0  0  0  0  0  0  0  0  0  0  0  0
  1  2  1  0  0  0  0
  1 26  1  0  0  0  0
  1 27  1  0  0  0  0
  1 28  1  0  0  0  0
  2  7  2  0  0  0  0
  2  3  1  0  0  0  0
  3  4  2  0  0  0  0
  3 29  1  0  0  0  0
  4  5  1  0  0  0  0
  4 30  1  0  0  0  0
  5  6  2  0  0  0  0
  5 16  1  0  0  0  0
  6  7  1  0  0  0  0
  6 31  1  0  0  0  0
  7  8  1  0  0  0  0
  8  9  1  0  0  0  0
  9 10  2  0  0  0  0
  9 11  2  0  0  0  0
  9 12  1  0  0  0  0
 12 13  1  0  0  0  0
 12 32  1  0  0  0  0
 12 33  1  0  0  0  0
 13 14  1  0  0  0  0
 13 15  1  0  0  0  0
 13 34  1  0  0  0  0
 14 35  1  0  0  0  0
 14 36  1  0  0  0  0
 14 37  1  0  0  0  0
 15 38  1  0  0  0  0
 15 39  1  0  0  0  0
 15 40  1  0  0  0  0
 16 20  1  0  0  0  0
 16 17  2  0  0  0  0
 17 18  1  0  0  0  0
 18 19  2  0  0  0  0
 19 25  1  0  0  0  0
 19 20  1  0  0  0  0
 20 21  1  0  0  0  0
 21 22  1  0  0  0  0
 21 41  1  0  0  0  0
 21 42  1  0  0  0  0
 22 23  1  0  0  0  0
 22 43  1  0  0  0  0
 22 44  1  0  0  0  0
 23 24  1  0  0  0  0
 23 45  1  0  0  0  0
 23 46  1  0  0  0  0
 24 25  1  0  0  0  0
 24 47  1  0  0  0  0
 24 48  1  0  0  0  0
 25 49  1  0  0  0  0
 25 50  1  0  0  0  0
M  END
$$$$
ZINC35465932
 OpenBabel01252620473D

 70 72  0  0  1  0  0  0  0  0999 V2000
    0.5307    1.2460   -0.0630 C   0  0  0  0  0  0  0  0  0  0  0  0
    0.3222   -0.2464   -0.0458 C   0  0  0  0  0  0  0  0  0  0  0  0
   -0.8952   -0.7049   -0.2476 C   0  0  0  0  0  0  0  0  0  0  0  0
   -1.2481   -2.1638   -0.2483 C   0  0  0  0  0  0  0  0  0  0  0  0
    0.0153   -3.0111   -0.4132 C   0  0  0  0  0  0  0  0  0  0  0  0
    1.0605   -2.5294    0.6004 C   0  0  0  0  0  0  0  0  0  0  0  0
    1.5155   -1.1245    0.1943 C   0  0  0  0  0  0  0  0  0  0  0  0
   -1.9296   -2.5214    1.0741 C   0  0  0  0  0  0  0  0  0  0  0  0
   -2.2074   -2.4531   -1.4045 C   0  0  0  0  0  0  0  0  0  0  0  0
   -1.9709    0.2677   -0.4854 C   0  0  0  0  0  0  0  0  0  0  0  0
   -1.7070    1.4476   -0.6083 O   0  0  0  0  0  0  0  0  0  0  0  0
   -3.2502   -0.1489   -0.5673 O   0  0  0  0  0  0  0  0  0  0  0  0
   -4.2444    0.8508   -0.8000 C   0  0  2  0  0  0  0  0  0  0  0  0
   -4.1099    1.6689   -0.0924 H   0  0  0  0  0  0  0  0  0  0  0  0
   -5.6359    0.2398   -0.6154 C   0  0  1  0  0  0  0  0  0  0  0  0
   -5.7508   -0.1004    0.4138 H   0  0  0  0  0  0  0  0  0  0  0  0
   -6.6962    1.3010   -0.9251 C   0  0  1  0  0  0  0  0  0  0  0  0
   -6.6080    2.1228   -0.2145 H   0  0  0  0  0  0  0  0  0  0  0  0
   -6.4763    1.8271   -2.3468 C   0  0  1  0  0  0  0  0  0  0  0  0
   -7.1921    2.6221   -2.5558 H   0  0  0  0  0  0  0  0  0  0  0  0
   -5.0523    2.3768   -2.4645 C   0  0  1  0  0  0  0  0  0  0  0  0
   -4.9284    3.2150   -1.7788 H   0  0  0  0  0  0  0  0  0  0  0  0
   -4.1170    1.3484   -2.1336 O   0  0  0  0  0  0  0  0  0  0  0  0
   -4.8049    2.8498   -3.8984 C   0  0  0  0  0  0  0  0  0  0  0  0
   -3.5194    3.4685   -3.9807 O   0  0  0  0  0  0  0  0  0  0  0  0
   -3.1878    3.9483   -5.2853 C   0  0  2  0  0  0  0  0  0  0  0  0
   -3.3617    3.1599   -6.0176 H   0  0  0  0  0  0  0  0  0  0  0  0
   -1.7136    4.3598   -5.3185 C   0  0  1  0  0  0  0  0  0  0  0  0
   -1.0879    3.4890   -5.1230 H   0  0  0  0  0  0  0  0  0  0  0  0
   -1.3814    4.9287   -6.7013 C   0  0  1  0  0  0  0  0  0  0  0  0
   -1.5172    4.1545   -7.4564 H   0  0  0  0  0  0  0  0  0  0  0  0
   -2.3195    6.1030   -6.9970 C   0  0  1  0  0  0  0  0  0  0  0  0
   -2.1271    6.4789   -8.0019 H   0  0  0  0  0  0  0  0  0  0  0  0
   -3.7703    5.6242   -6.8990 C   0  0  1  0  0  0  0  0  0  0  0  0
   -3.9519    4.8579   -7.6526 H   0  0  0  0  0  0  0  0  0  0  0  0
   -4.0039    5.0787   -5.5990 O   0  0  0  0  0  0  0  0  0  0  0  0
   -4.7143    6.8050   -7.1343 C   0  0  0  0  0  0  0  0  0  0  0  0
   -6.0646    6.3379   -7.1585 O   0  0  0  0  0  0  0  0  0  0  0  0
   -2.0941    7.1455   -6.0460 O   0  0  0  0  0  0  0  0  0  0  0  0
   -0.0260    5.3813   -6.7190 O   0  0  0  0  0  0  0  0  0  0  0  0
   -1.4729    5.3544   -4.3211 O   0  0  0  0  0  0  0  0  0  0  0  0
   -6.6576    0.7630   -3.2831 O   0  0  0  0  0  0  0  0  0  0  0  0
   -7.9978    0.7199   -0.8246 O   0  0  0  0  0  0  0  0  0  0  0  0
   -5.7930   -0.8676   -1.5048 O   0  0  0  0  0  0  0  0  0  0  0  0
    1.5833    1.4678    0.1130 H   0  0  0  0  0  0  0  0  0  0  0  0
    0.2330    1.6434   -1.0334 H   0  0  0  0  0  0  0  0  0  0  0  0
   -0.0733    1.7063    0.7189 H   0  0  0  0  0  0  0  0  0  0  0  0
   -0.2197   -4.0590   -0.2269 H   0  0  0  0  0  0  0  0  0  0  0  0
    0.4049   -2.8945   -1.4245 H   0  0  0  0  0  0  0  0  0  0  0  0
    0.6187   -2.5010    1.5965 H   0  0  0  0  0  0  0  0  0  0  0  0
    1.9150   -3.2060    0.5949 H   0  0  0  0  0  0  0  0  0  0  0  0
    2.1103   -1.1832   -0.7173 H   0  0  0  0  0  0  0  0  0  0  0  0
    2.1229   -0.6985    0.9928 H   0  0  0  0  0  0  0  0  0  0  0  0
   -2.8363   -1.9274    1.1878 H   0  0  0  0  0  0  0  0  0  0  0  0
   -2.1866   -3.5807    1.0755 H   0  0  0  0  0  0  0  0  0  0  0  0
   -1.2513   -2.3110    1.9009 H   0  0  0  0  0  0  0  0  0  0  0  0
   -1.8043   -2.0313   -2.3253 H   0  0  0  0  0  0  0  0  0  0  0  0
   -2.3238   -3.5308   -1.5191 H   0  0  0  0  0  0  0  0  0  0  0  0
   -3.1775   -2.0034   -1.1930 H   0  0  0  0  0  0  0  0  0  0  0  0
   -4.8408    1.9953   -4.5741 H   0  0  0  0  0  0  0  0  0  0  0  0
   -5.5732    3.5693   -4.1813 H   0  0  0  0  0  0  0  0  0  0  0  0
   -4.5954    7.5311   -6.3300 H   0  0  0  0  0  0  0  0  0  0  0  0
   -4.4758    7.2765   -8.0876 H   0  0  0  0  0  0  0  0  0  0  0  0
   -6.7193    7.0346   -7.3039 H   0  0  0  0  0  0  0  0  0  0  0  0
   -1.1919    7.4935   -6.0503 H   0  0  0  0  0  0  0  0  0  0  0  0
    0.6224    4.6884   -6.5330 H   0  0  0  0  0  0  0  0  0  0  0  0
   -1.6670    5.0627   -3.4198 H   0  0  0  0  0  0  0  0  0  0  0  0
   -7.5383    0.3644   -3.2599 H   0  0  0  0  0  0  0  0  0  0  0  0
   -8.2017    0.3604    0.0497 H   0  0  0  0  0  0  0  0  0  0  0  0
   -5.1500   -1.5767   -1.3674 H   0  0  0  0  0  0  0  0  0  0  0  0
  1  2  1  0  0  0  0
  1 45  1  0  0  0  0
  1 46  1  0  0  0  0
  1 47  1  0  0  0  0
  2  7  1  0  0  0  0
  2  3  2  0  0  0  0
  3  4  1  0  0  0  0
  3 10  1  0  0  0  0
  4  5  1  0  0  0  0
  4  8  1  0  0  0  0
  4  9  1  0  0  0  0
  5  6  1  0  0  0  0
  5 48  1  0  0  0  0
  5 49  1  0  0  0  0
  6  7  1  0  0  0  0
  6 50  1  0  0  0  0
  6 51  1  0  0  0  0
  7 52  1  0  0  0  0
  7 53  1  0  0  0  0
  8 54  1  0  0  0  0
  8 55  1  0  0  0  0
  8 56  1  0  0  0  0
  9 57  1  0  0  0  0
  9 58  1  0  0  0  0
  9 59  1  0  0  0  0
 10 11  2  0  0  0  0
 10 12  1  0  0  0  0
 12 13  1  0  0  0  0
 13 14  1  1  0  0  0
 13 23  1  0  0  0  0
 13 15  1  0  0  0  0
 15 16  1  1  0  0  0
 15 17  1  0  0  0  0
 15 44  1  0  0  0  0
 17 18  1  1  0  0  0
 17 19  1  0  0  0  0
 17 43  1  0  0  0  0
 19 20  1  6  0  0  0
 19 21  1  0  0  0  0
 19 42  1  0  0  0  0
 21 22  1  1  0  0  0
 21 23  1  0  0  0  0
 21 24  1  0  0  0  0
 24 25  1  0  0  0  0
 24 60  1  0  0  0  0
 24 61  1  0  0  0  0
 25 26  1  0  0  0  0
 26 27  1  6  0  0  0
 26 36  1  0  0  0  0
 26 28  1  0  0  0  0
 28 29  1  1  0  0  0
 28 30  1  0  0  0  0
 28 41  1  0  0  0  0
 30 31  1  6  0  0  0
 30 32  1  0  0  0  0
 30 40  1  0  0  0  0
 32 33  1  6  0  0  0
 32 34  1  0  0  0  0
 32 39  1  0  0  0  0
 34 35  1  6  0  0  0
 34 36  1  0  0  0  0
 34 37  1  0  0  0  0
 37 38  1  0  0  0  0
 37 62  1  0  0  0  0
 37 63  1  0  0  0  0
 38 64  1  0  0  0  0
 39 65  1  0  0  0  0
 40 66  1  0  0  0  0
 41 67  1  0  0  0  0
 42 68  1  0  0  0  0
 43 69  1  0  0  0  0
 44 70  1  0  0  0  0
M  END
$$$$
ZINC01668319
 OpenBabel01252620473D

 28 30  0  0  0  0  0  0  0  0999 V2000
    0.0996   -2.7590    0.0078 C   0  0  0  0  0  0  0  0  0  0  0  0
    1.1480   -2.0374    0.5499 C   0  0  0  0  0  0  0  0  0  0  0  0
    1.1091   -0.6518    0.5556 C   0  0  0  0  0  0  0  0  0  0  0  0
    0.0021   -0.0041    0.0020 C   0  0  0  0  0  0  0  0  0  0  0  0
   -1.0435   -0.7259   -0.5378 C   0  0  0  0  0  0  0  0  0  0  0  0
   -0.9939   -2.1104   -0.5339 C   0  0  0  0  0  0  0  0  0  0  0  0
   -2.3231   -3.0429   -1.2182 S   0  0  0  0  0  0  0  0  0  0  0  0
   -2.2823   -4.3218   -0.6002 O   0  0  0  0  0  0  0  0  0  0  0  0
   -3.4725   -2.2088   -1.1678 O   0  0  0  0  0  0  0  0  0  0  0  0
   -0.0219    1.7635    0.0117 S   0  0  0  0  0  0  0  0  0  0  0  0
    1.7060    2.1362   -0.0028 C   0  0  0  0  0  0  0  0  0  0  0  0
    2.1744    3.3132   -0.5514 C   0  0  0  0  0  0  0  0  0  0  0  0
    3.5348    3.5748   -0.5520 C   0  0  0  0  0  0  0  0  0  0  0  0
    4.4128    2.6581   -0.0057 C   0  0  0  0  0  0  0  0  0  0  0  0
    3.9452    1.4788    0.5464 C   0  0  0  0  0  0  0  0  0  0  0  0
    2.5862    1.2062    0.5557 C   0  0  0  0  0  0  0  0  0  0  0  0
    2.1273    0.0549    1.1014 O   0  0  0  0  0  0  0  0  0  0  0  0
    4.1447    5.0743   -1.2477 S   0  0  0  0  0  0  0  0  0  0  0  0
    5.4960    4.8318   -1.6144 O   0  0  0  0  0  0  0  0  0  0  0  0
    3.1691    5.5148   -2.1822 O   0  0  0  0  0  0  0  0  0  0  0  0
    0.1361   -3.8383    0.0076 H   0  0  0  0  0  0  0  0  0  0  0  0
    1.9981   -2.5545    0.9699 H   0  0  0  0  0  0  0  0  0  0  0  0
   -1.8955   -0.2142   -0.9604 H   0  0  0  0  0  0  0  0  0  0  0  0
    1.4842    4.0260   -0.9781 H   0  0  0  0  0  0  0  0  0  0  0  0
    5.4730    2.8640   -0.0096 H   0  0  0  0  0  0  0  0  0  0  0  0
    4.6403    0.7693    0.9705 H   0  0  0  0  0  0  0  0  0  0  0  0
   -2.0083   -3.2612   -2.6911 O   0  0  0  0  0  1  0  0  0  0  0  0
    4.1759    6.1084   -0.1313 O   0  0  0  0  0  1  0  0  0  0  0  0
  1  6  2  0  0  0  0
  1  2  1  0  0  0  0
  1 21  1  0  0  0  0
  2  3  2  0  0  0  0
  2 22  1  0  0  0  0
  3 17  1  0  0  0  0
  3  4  1  0  0  0  0
  4  5  2  0  0  0  0
  4 10  1  0  0  0  0
  5  6  1  0  0  0  0
  5 23  1  0  0  0  0
  6  7  1  0  0  0  0
  7  8  2  0  0  0  0
  7  9  2  0  0  0  0
  7 27  1  0  0  0  0
 10 11  1  0  0  0  0
 11 16  2  0  0  0  0
 11 12  1  0  0  0  0
 12 13  2  0  0  0  0
 12 24  1  0  0  0  0
 13 14  1  0  0  0  0
 13 18  1  0  0  0  0
 14 15  2  0  0  0  0
 14 25  1  0  0  0  0
 15 16  1  0  0  0  0
 15 26  1  0  0  0  0
 16 17  1  0  0  0  0
 18 19  2  0  0  0  0
 18 20  2  0  0  0  0
 18 28  1  0  0  0  0
M  END
$$$$
ZINC13078317
 OpenBabel01252620473D

 47 49  0  0  0  0  0  0  0  0999 V2000
   -1.2345    1.8122    0.2628 C   0  0  0  0  0  0  0  0  0  0  0  0
   -0.0974    1.0778   -0.0318 C   0  0  0  0  0  0  0  0  0  0  0  0
    1.1003    1.7162   -0.2849 C   0  0  0  0  0  0  0  0  0  0  0  0
    1.1731    3.1012   -0.2403 C   0  0  0  0  0  0  0  0  0  0  0  0
    0.0255    3.8475    0.0628 C   0  0  0  0  0  0  0  0  0  0  0  0
   -1.1793    3.1883    0.3166 C   0  0  0  0  0  0  0  0  0  0  0  0
    0.0902    5.3210    0.1127 C   0  0  0  0  0  0  0  0  0  0  0  0
    1.1611    5.8864    0.0055 O   0  0  0  0  0  0  0  0  0  0  0  0
   -1.0380    6.0398    0.2772 N   0  0  0  0  0  0  0  0  0  0  0  0
   -0.9766    7.4387    0.3247 N   0  0  0  0  0  0  0  0  0  0  0  0
   -1.8969    8.3435   -0.7129 S   0  0  0  0  0  0  0  0  0  0  0  0
   -1.7280    9.7007   -0.3273 O   0  0  0  0  0  0  0  0  0  0  0  0
   -1.6031    7.8819   -2.0243 O   0  0  0  0  0  0  0  0  0  0  0  0
   -3.5832    7.9379   -0.4023 C   0  0  0  0  0  0  0  0  0  0  0  0
   -4.1863    6.9082   -1.1001 C   0  0  0  0  0  0  0  0  0  0  0  0
   -5.5080    6.5872   -0.8533 C   0  0  0  0  0  0  0  0  0  0  0  0
   -6.2293    7.3017    0.0849 C   0  0  0  0  0  0  0  0  0  0  0  0
   -5.6277    8.3347    0.7790 C   0  0  0  0  0  0  0  0  0  0  0  0
   -4.3048    8.6530    0.5352 C   0  0  0  0  0  0  0  0  0  0  0  0
   -7.6712    6.9541    0.3513 C   0  0  0  0  0  0  0  0  0  0  0  0
   -8.5722    7.7649   -0.5824 C   0  0  0  0  0  0  0  0  0  0  0  0
  -10.0142    7.4173   -0.3160 C   0  0  0  0  0  0  0  0  0  0  0  0
  -10.2926    6.6045    0.5335 O   0  0  0  0  0  0  0  0  0  0  0  0
    2.3839    3.7488   -0.4956 N   0  0  0  0  0  0  0  0  0  0  0  0
    2.6006    4.6761   -1.4756 C   0  0  0  0  0  0  0  0  0  0  0  0
    3.8878    5.0705   -1.4047 C   0  0  0  0  0  0  0  0  0  0  0  0
    4.4920    4.3568   -0.3495 C   0  0  0  0  0  0  0  0  0  0  0  0
    3.5507    3.5561    0.1892 C   0  0  0  0  0  0  0  0  0  0  0  0
   -2.1679    1.3038    0.4550 H   0  0  0  0  0  0  0  0  0  0  0  0
   -0.1492   -0.0004   -0.0680 H   0  0  0  0  0  0  0  0  0  0  0  0
    1.9816    1.1370   -0.5175 H   0  0  0  0  0  0  0  0  0  0  0  0
   -2.0674    3.7563    0.5512 H   0  0  0  0  0  0  0  0  0  0  0  0
   -1.8924    5.5887    0.3628 H   0  0  0  0  0  0  0  0  0  0  0  0
   -0.3950    7.8772    0.9652 H   0  0  0  0  0  0  0  0  0  0  0  0
   -3.6239    6.3524   -1.8358 H   0  0  0  0  0  0  0  0  0  0  0  0
   -5.9779    5.7798   -1.3953 H   0  0  0  0  0  0  0  0  0  0  0  0
   -6.1912    8.8930    1.5119 H   0  0  0  0  0  0  0  0  0  0  0  0
   -3.8348    9.4601    1.0775 H   0  0  0  0  0  0  0  0  0  0  0  0
   -7.8273    5.8901    0.1734 H   0  0  0  0  0  0  0  0  0  0  0  0
   -7.9162    7.1890    1.3871 H   0  0  0  0  0  0  0  0  0  0  0  0
   -8.4161    8.8288   -0.4045 H   0  0  0  0  0  0  0  0  0  0  0  0
   -8.3272    7.5299   -1.6182 H   0  0  0  0  0  0  0  0  0  0  0  0
    1.8669    5.0333   -2.1831 H   0  0  0  0  0  0  0  0  0  0  0  0
    4.3691    5.7975   -2.0420 H   0  0  0  0  0  0  0  0  0  0  0  0
    5.5209    4.4367   -0.0311 H   0  0  0  0  0  0  0  0  0  0  0  0
    3.6939    2.8794    1.0186 H   0  0  0  0  0  0  0  0  0  0  0  0
  -10.9891    8.0106   -1.0224 O   0  0  0  0  0  1  0  0  0  0  0  0
  1  6  2  0  0  0  0
  1  2  1  0  0  0  0
  1 29  1  0  0  0  0
  2  3  2  0  0  0  0
  2 30  1  0  0  0  0
  3  4  1  0  0  0  0
  3 31  1  0  0  0  0
  4  5  2  0  0  0  0
  4 24  1  0  0  0  0
  5  6  1  0  0  0  0
  5  7  1  0  0  0  0
  6 32  1  0  0  0  0
  7  8  2  0  0  0  0
  7  9  1  0  0  0  0
  9 10  1  0  0  0  0
  9 33  1  0  0  0  0
 10 11  1  0  0  0  0
 10 34  1  0  0  0  0
 11 12  2  0  0  0  0
 11 13  2  0  0  0  0
 11 14  1  0  0  0  0
 14 19  2  0  0  0  0
 14 15  1  0  0  0  0
 15 16  2  0  0  0  0
 15 35  1  0  0  0  0
 16 17  1  0  0  0  0
 16 36  1  0  0  0  0
 17 18  2  0  0  0  0
 17 20  1  0  0  0  0
 18 19  1  0  0  0  0
 18 37  1  0  0  0  0
 19 38  1  0  0  0  0
 20 21  1  0  0  0  0
 20 39  1  0  0  0  0
 20 40  1  0  0  0  0
 21 22  1  0  0  0  0
 21 41  1  0  0  0  0
 21 42  1  0  0  0  0
 22 23  2  0  0  0  0
 22 47  1  0  0  0  0
 24 28  1  0  0  0  0
 24 25  1  0  0  0  0
 25 26  2  0  0  0  0
 25 43  1  0  0  0  0
 26 27  1  0  0  0  0
 26 44  1  0  0  0  0
 27 28  2  0  0  0  0
 27 45  1  0  0  0  0
 28 46  1  0  0  0  0
M  END
$$$$
ZINC40909385
 OpenBabel01252620473D

 27 27  0  0  0  0  0  0  0  0999 V2000
   -0.0187    1.5258    0.0104 C   0  0  0  0  0  0  0  0  0  0  0  0
    0.0021   -0.0041    0.0020 C   0  0  0  0  0  0  0  0  0  0  0  0
    0.7421   -0.5109    1.2415 C   0  0  0  0  0  0  0  0  0  0  0  0
   -1.4117   -0.5257    0.0127 C   0  0  0  0  0  0  0  0  0  0  0  0
   -1.8097   -1.2271   -0.9017 O   0  0  0  0  0  0  0  0  0  0  0  0
   -2.1576   -0.2463    0.9358 O   0  0  0  0  0  1  0  0  0  0  0  0
    0.6878   -0.4765   -1.2033 N   0  0  0  0  0  0  0  0  0  0  0  0
    1.9715   -0.1323   -1.4270 C   0  0  0  0  0  0  0  0  0  0  0  0
    2.5603    0.5703   -0.6287 O   0  0  0  0  0  0  0  0  0  0  0  0
    2.6633   -0.6089   -2.6431 C   0  0  0  0  0  0  0  0  0  0  0  0
    1.9883   -1.4111   -3.5649 C   0  0  0  0  0  0  0  0  0  0  0  0
    2.6395   -1.8522   -4.6979 C   0  0  0  0  0  0  0  0  0  0  0  0
    3.9595   -1.5018   -4.9221 C   0  0  0  0  0  0  0  0  0  0  0  0
    4.6347   -0.7074   -4.0134 C   0  0  0  0  0  0  0  0  0  0  0  0
    3.9932   -0.2542   -2.8780 C   0  0  0  0  0  0  0  0  0  0  0  0
    5.0152    0.9556   -1.5065 I   0  0  0  0  0  0  0  0  0  0  0  0
    1.0039    1.9031    0.0027 H   0  0  0  0  0  0  0  0  0  0  0  0
   -0.5459    1.8868   -0.8726 H   0  0  0  0  0  0  0  0  0  0  0  0
   -0.5289    1.8773    0.9072 H   0  0  0  0  0  0  0  0  0  0  0  0
    0.2319   -0.1594    2.1383 H   0  0  0  0  0  0  0  0  0  0  0  0
    0.7568   -1.6008    1.2356 H   0  0  0  0  0  0  0  0  0  0  0  0
    1.7647   -0.1336    1.2338 H   0  0  0  0  0  0  0  0  0  0  0  0
    0.2179   -1.0371   -1.8404 H   0  0  0  0  0  0  0  0  0  0  0  0
    0.9584   -1.6861   -3.3911 H   0  0  0  0  0  0  0  0  0  0  0  0
    2.1182   -2.4728   -5.4117 H   0  0  0  0  0  0  0  0  0  0  0  0
    4.4647   -1.8506   -5.8107 H   0  0  0  0  0  0  0  0  0  0  0  0
    5.6647   -0.4376   -4.1945 H   0  0  0  0  0  0  0  0  0  0  0  0
  1  2  1  0  0  0  0
  1 17  1  0  0  0  0
  1 18  1  0  0  0  0
  1 19  1  0  0  0  0
  2  3  1  0  0  0  0
  2  4  1  0  0  0  0
  2  7  1  0  0  0  0
  3 20  1  0  0  0  0
  3 21  1  0  0  0  0
  3 22  1  0  0  0  0
  4  5  2  0  0  0  0
  4  6  1  0  0  0  0
  7  8  1  0  0  0  0
  7 23  1  0  0  0  0
  8  9  2  0  0  0  0
  8 10  1  0  0  0  0
 10 15  2  0  0  0  0
 10 11  1  0  0  0  0
 11 12  2  0  0  0  0
 11 24  1  0  0  0  0
 12 13  1  0  0  0  0
 12 25  1  0  0  0  0
 13 14  2  0  0  0  0
 13 26  1  0  0  0  0
 14 15  1  0  0  0  0
 14 27  1  0  0  0  0
 15 16  1  0  0  0  0
M  END
$$$$
ZINC24889296
 OpenBabel01252620473D

 43 45  0  0  0  0  0  0  0  0999 V2000
   -0.0668    1.5385    0.0133 C   0  0  0  0  0  0  0  0  0  0  0  0
   -0.0470    0.0317   -0.0024 C   0  0  0  0  0  0  0  0  0  0  0  0
   -0.0482   -0.7558   -1.1025 C   0  0  0  0  0  0  0  0  0  0  0  0
   -0.0260   -2.0895   -0.6787 C   0  0  0  0  0  0  0  0  0  0  0  0
   -0.0119   -2.1062    0.6294 N   0  0  0  0  0  0  0  0  0  0  0  0
   -0.0187   -0.7815    1.0853 N   0  0  0  0  0  0  0  0  0  0  0  0
   -0.0024   -0.3699    2.4216 C   0  0  0  0  0  0  0  0  0  0  0  0
    0.6750    0.7898    2.7819 C   0  0  0  0  0  0  0  0  0  0  0  0
    0.6928    1.1985    4.0970 C   0  0  0  0  0  0  0  0  0  0  0  0
    0.0291    0.4462    5.0695 C   0  0  0  0  0  0  0  0  0  0  0  0
   -0.6504   -0.7185    4.7038 C   0  0  0  0  0  0  0  0  0  0  0  0
   -0.6684   -1.1182    3.3860 C   0  0  0  0  0  0  0  0  0  0  0  0
    0.0463    0.8808    6.4804 C   0  0  0  0  0  0  0  0  0  0  0  0
    0.6386    1.8945    6.7972 O   0  0  0  0  0  0  0  0  0  0  0  0
   -0.5943    0.1540    7.4173 N   0  0  0  0  0  0  0  0  0  0  0  0
   -0.5005    0.5134    8.7679 C   0  0  0  0  0  0  0  0  0  0  0  0
   -0.4238    1.8505    9.1281 C   0  0  0  0  0  0  0  0  0  0  0  0
   -0.3312    2.2029   10.4615 C   0  0  0  0  0  0  0  0  0  0  0  0
   -0.3153    1.2257   11.4398 C   0  0  0  0  0  0  0  0  0  0  0  0
   -0.3913   -0.1094   11.0901 C   0  0  0  0  0  0  0  0  0  0  0  0
   -0.4897   -0.4721    9.7549 C   0  0  0  0  0  0  0  0  0  0  0  0
   -0.5727   -1.8225    9.3989 N   0  0  0  0  0  2  0  0  0  0  0  0
   -0.5597   -2.9905   10.5727 S   0  0  0  0  0  0  0  0  0  0  0  0
    0.7184   -2.8769   11.1832 O   0  0  0  0  0  0  0  0  0  0  0  0
   -1.7442   -2.7627   11.3240 O   0  0  0  0  0  0  0  0  0  0  0  0
   -0.6840   -4.5594    9.6707 C   0  0  0  0  0  0  0  0  0  0  0  0
    0.9559    1.9155    0.0006 H   0  0  0  0  0  0  0  0  0  0  0  0
   -0.5997    1.9040   -0.8645 H   0  0  0  0  0  0  0  0  0  0  0  0
   -0.5709    1.8858    0.9151 H   0  0  0  0  0  0  0  0  0  0  0  0
   -0.0641   -0.4152   -2.1272 H   0  0  0  0  0  0  0  0  0  0  0  0
   -0.0213   -2.9570   -1.3220 H   0  0  0  0  0  0  0  0  0  0  0  0
    1.1880    1.3706    2.0296 H   0  0  0  0  0  0  0  0  0  0  0  0
    1.2194    2.0991    4.3762 H   0  0  0  0  0  0  0  0  0  0  0  0
   -1.1642   -1.3026    5.4530 H   0  0  0  0  0  0  0  0  0  0  0  0
   -1.1970   -2.0162    3.1019 H   0  0  0  0  0  0  0  0  0  0  0  0
   -1.1204   -0.6180    7.1563 H   0  0  0  0  0  0  0  0  0  0  0  0
   -0.4359    2.6164    8.3667 H   0  0  0  0  0  0  0  0  0  0  0  0
   -0.2708    3.2447   10.7400 H   0  0  0  0  0  0  0  0  0  0  0  0
   -0.2428    1.5066   12.4801 H   0  0  0  0  0  0  0  0  0  0  0  0
   -0.3778   -0.8700   11.8568 H   0  0  0  0  0  0  0  0  0  0  0  0
    0.1652   -4.6579    8.9944 H   0  0  0  0  0  0  0  0  0  0  0  0
   -0.6818   -5.3873   10.3796 H   0  0  0  0  0  0  0  0  0  0  0  0
   -1.6100   -4.5756    9.0959 H   0  0  0  0  0  0  0  0  0  0  0  0
  1  2  1  0  0  0  0
  1 27  1  0  0  0  0
  1 28  1  0  0  0  0
  1 29  1  0  0  0  0
  2  6  1  0  0  0  0
  2  3  2  0  0  0  0
  3  4  1  0  0  0  0
  3 30  1  0  0  0  0
  4  5  2  0  0  0  0
  4 31  1  0  0  0  0
  5  6  1  0  0  0  0
  6  7  1  0  0  0  0
  7 12  2  0  0  0  0
  7  8  1  0  0  0  0
  8  9  2  0  0  0  0
  8 32  1  0  0  0  0
  9 10  1  0  0  0  0
  9 33  1  0  0  0  0
 10 11  2  0  0  0  0
 10 13  1  0  0  0  0
 11 12  1  0  0  0  0
 11 34  1  0  0  0  0
 12 35  1  0  0  0  0
 13 14  2  0  0  0  0
 13 15  1  0  0  0  0
 15 16  1  0  0  0  0
 15 36  1  0  0  0  0
 16 21  2  0  0  0  0
 16 17  1  0  0  0  0
 17 18  2  0  0  0  0
 17 37  1  0  0  0  0
 18 19  1  0  0  0  0
 18 38  1  0  0  0  0
 19 20  2  0  0  0  0
 19 39  1  0  0  0  0
 20 21  1  0  0  0  0
 20 40  1  0  0  0  0
 21 22  1  0  0  0  0
 22 23  1  0  0  0  0
 23 24  2  0  0  0  0
 23 25  2  0  0  0  0
 23 26  1  0  0  0  0
 26 41  1  0  0  0  0
 26 42  1  0  0  0  0
 26 43  1  0  0  0  0
M  END
$$$$
ZINC44599104
 OpenBabel01252620473D

 55 58  0  0  0  0  0  0  0  0999 V2000
   -2.2960    0.9223    1.5956 C   0  0  0  0  0  0  0  0  0  0  0  0
   -1.9974   -0.5647    1.3940 C   0  0  0  0  0  0  0  0  0  0  0  0
   -1.2173   -1.0468    2.4899 O   0  0  0  0  0  0  0  0  0  0  0  0
   -0.8634   -2.3596    2.4654 C   0  0  0  0  0  0  0  0  0  0  0  0
   -1.2534   -3.1643    1.4070 C   0  0  0  0  0  0  0  0  0  0  0  0
   -0.8923   -4.4985    1.3834 C   0  0  0  0  0  0  0  0  0  0  0  0
   -0.1425   -5.0332    2.4146 C   0  0  0  0  0  0  0  0  0  0  0  0
    0.2496   -4.2360    3.4737 C   0  0  0  0  0  0  0  0  0  0  0  0
   -0.1037   -2.8964    3.5004 C   0  0  0  0  0  0  0  0  0  0  0  0
    0.2862   -2.1093    4.5387 O   0  0  0  0  0  0  0  0  0  0  0  0
    1.0640   -2.7281    5.5654 C   0  0  0  0  0  0  0  0  0  0  0  0
    1.4058   -1.6937    6.6397 C   0  0  0  0  0  0  0  0  0  0  0  0
    0.2480   -6.4884    2.3841 C   0  0  0  0  0  0  0  0  0  0  0  0
    1.5918   -6.6410    1.6688 C   0  0  0  0  0  0  0  0  0  0  0  0
    1.9714   -8.0557    1.6392 N   0  0  0  0  0  0  0  0  0  0  0  0
    2.6939   -8.7000    2.5815 C   0  0  0  0  0  0  0  0  0  0  0  0
    3.1530   -8.2302    3.6077 O   0  0  0  0  0  0  0  0  0  0  0  0
    2.8097  -10.0864    2.1088 C   0  0  0  0  0  0  0  0  0  0  0  0
    3.4624  -11.1275    2.7379 C   0  0  0  0  0  0  0  0  0  0  0  0
    4.2470  -10.8782    3.8911 C   0  0  0  0  0  0  0  0  0  0  0  0
    5.0279   -9.7685    4.1365 C   0  0  0  0  0  0  0  0  0  0  0  0
    5.6259   -9.8953    5.3474 N   0  0  0  0  0  0  0  0  0  0  0  0
    6.2239   -9.2400    5.7397 H   0  0  0  0  0  0  0  0  0  0  0  0
    5.2647  -11.0864    5.9437 C   0  0  0  0  0  0  0  0  0  0  0  0
    4.3870  -11.7514    5.0729 C   0  0  0  0  0  0  0  0  0  0  0  0
    3.8555  -12.9883    5.4267 C   0  0  0  0  0  0  0  0  0  0  0  0
    4.1921  -13.5549    6.6372 C   0  0  0  0  0  0  0  0  0  0  0  0
    5.0562  -12.8980    7.5005 C   0  0  0  0  0  0  0  0  0  0  0  0
    5.5959  -11.6768    7.1591 C   0  0  0  0  0  0  0  0  0  0  0  0
    2.1377  -10.1347    0.9175 N   0  0  0  0  0  0  0  0  0  0  0  0
    1.6486   -8.9526    0.6530 C   0  0  0  0  0  0  0  0  0  0  0  0
    0.7042   -8.5613   -0.7821 S   0  0  0  0  0  1  0  0  0  0  0  0
   -1.3593    1.4773    1.6468 H   0  0  0  0  0  0  0  0  0  0  0  0
   -2.8911    1.2900    0.7597 H   0  0  0  0  0  0  0  0  0  0  0  0
   -2.8504    1.0589    2.5241 H   0  0  0  0  0  0  0  0  0  0  0  0
   -2.9342   -1.1197    1.3429 H   0  0  0  0  0  0  0  0  0  0  0  0
   -1.4431   -0.7013    0.4655 H   0  0  0  0  0  0  0  0  0  0  0  0
   -1.8398   -2.7493    0.6006 H   0  0  0  0  0  0  0  0  0  0  0  0
   -1.1970   -5.1247    0.5579 H   0  0  0  0  0  0  0  0  0  0  0  0
    0.8350   -4.6562    4.2782 H   0  0  0  0  0  0  0  0  0  0  0  0
    0.4933   -3.5418    6.0130 H   0  0  0  0  0  0  0  0  0  0  0  0
    1.9844   -3.1233    5.1357 H   0  0  0  0  0  0  0  0  0  0  0  0
    0.4853   -1.2985    7.0695 H   0  0  0  0  0  0  0  0  0  0  0  0
    1.9990   -2.1657    7.4229 H   0  0  0  0  0  0  0  0  0  0  0  0
    1.9764   -0.8800    6.1922 H   0  0  0  0  0  0  0  0  0  0  0  0
    0.3347   -6.8628    3.4041 H   0  0  0  0  0  0  0  0  0  0  0  0
   -0.5138   -7.0579    1.8516 H   0  0  0  0  0  0  0  0  0  0  0  0
    1.5051   -6.2667    0.6488 H   0  0  0  0  0  0  0  0  0  0  0  0
    2.3536   -6.0716    2.2013 H   0  0  0  0  0  0  0  0  0  0  0  0
    3.3751  -12.1321    2.3510 H   0  0  0  0  0  0  0  0  0  0  0  0
    5.1456   -8.9287    3.4677 H   0  0  0  0  0  0  0  0  0  0  0  0
    3.1821  -13.5013    4.7560 H   0  0  0  0  0  0  0  0  0  0  0  0
    3.7811  -14.5143    6.9147 H   0  0  0  0  0  0  0  0  0  0  0  0
    5.3135  -13.3508    8.4467 H   0  0  0  0  0  0  0  0  0  0  0  0
    6.2665  -11.1731    7.8396 H   0  0  0  0  0  0  0  0  0  0  0  0
  1  2  1  0  0  0  0
  1 33  1  0  0  0  0
  1 34  1  0  0  0  0
  1 35  1  0  0  0  0
  2  3  1  0  0  0  0
  2 36  1  0  0  0  0
  2 37  1  0  0  0  0
  3  4  1  0  0  0  0
  4  9  2  0  0  0  0
  4  5  1  0  0  0  0
  5  6  2  0  0  0  0
  5 38  1  0  0  0  0
  6  7  1  0  0  0  0
  6 39  1  0  0  0  0
  7  8  2  0  0  0  0
  7 13  1  0  0  0  0
  8  9  1  0  0  0  0
  8 40  1  0  0  0  0
  9 10  1  0  0  0  0
 10 11  1  0  0  0  0
 11 12  1  0  0  0  0
 11 41  1  0  0  0  0
 11 42  1  0  0  0  0
 12 43  1  0  0  0  0
 12 44  1  0  0  0  0
 12 45  1  0  0  0  0
 13 14  1  0  0  0  0
 13 46  1  0  0  0  0
 13 47  1  0  0  0  0
 14 15  1  0  0  0  0
 14 48  1  0  0  0  0
 14 49  1  0  0  0  0
 15 31  1  0  0  0  0
 15 16  1  0  0  0  0
 16 17  2  0  0  0  0
 16 18  1  0  0  0  0
 18 19  2  0  0  0  0
 18 30  1  0  0  0  0
 19 20  1  0  0  0  0
 19 50  1  0  0  0  0
 20 25  1  0  0  0  0
 20 21  2  0  0  0  0
 21 22  1  0  0  0  0
 21 51  1  0  0  0  0
 22 23  1  0  0  0  0
 22 24  1  0  0  0  0
 24 29  2  0  0  0  0
 24 25  1  0  0  0  0
 25 26  2  0  0  0  0
 26 27  1  0  0  0  0
 26 52  1  0  0  0  0
 27 28  2  0  0  0  0
 27 53  1  0  0  0  0
 28 29  1  0  0  0  0
 28 54  1  0  0  0  0
 29 55  1  0  0  0  0
 30 31  2  0  0  0  0
 31 32  1  0  0  0  0
M  END
$$$$
ZINC41073913
 OpenBabel01252620473D

 30 30  0  0  0  0  0  0  0  0999 V2000
    0.1279    1.1579    0.7506 C   0  0  0  0  0  0  0  0  0  0  0  0
    1.3098    1.8642    0.7395 C   0  0  0  0  0  0  0  0  0  0  0  0
    2.3844    1.4133   -0.0322 C   0  0  0  0  0  0  0  0  0  0  0  0
    2.2544    0.2448   -0.7909 C   0  0  0  0  0  0  0  0  0  0  0  0
    1.0679   -0.4564   -0.7742 C   0  0  0  0  0  0  0  0  0  0  0  0
    0.0017   -0.0035   -0.0047 C   0  0  0  0  0  0  0  0  0  0  0  0
   -1.1978   -0.7162    0.0101 N   0  0  0  0  0  0  0  0  0  0  0  0
   -1.1850   -2.0595   -0.0989 C   0  0  0  0  0  0  0  0  0  0  0  0
   -0.1273   -2.6580   -0.1128 O   0  0  0  0  0  0  0  0  0  0  0  0
   -2.3451   -2.7392   -0.1926 N   0  0  0  0  0  0  0  0  0  0  0  0
   -2.3322   -4.0824   -0.3016 C   0  0  0  0  0  0  0  0  0  0  0  0
   -1.2771   -4.6794   -0.3155 O   0  0  0  0  0  0  0  0  0  0  0  0
   -3.6293   -4.8424   -0.4064 C   0  0  0  0  0  0  0  0  0  0  0  0
   -3.3550   -6.2408   -0.5113 O   0  0  0  0  0  0  0  0  0  0  0  0
   -4.5238   -7.0562   -0.6163 C   0  0  0  0  0  0  0  0  0  0  0  0
   -4.1187   -8.5039   -0.7209 C   0  0  0  0  0  0  0  0  0  0  0  0
   -2.9383   -8.8092   -0.7069 O   0  0  0  0  0  0  0  0  0  0  0  0
   -4.9712   -9.3700   -0.8196 O   0  0  0  0  0  1  0  0  0  0  0  0
    3.5850   -0.3205   -1.7520 Cl  0  0  0  0  0  0  0  0  0  0  0  0
    3.6150    2.1455   -0.0467 C   0  0  0  0  0  0  0  0  0  0  0  0
    4.5912    2.7263   -0.0582 N   0  0  0  0  0  0  0  0  0  0  0  0
   -0.7011    1.5037    1.3503 H   0  0  0  0  0  0  0  0  0  0  0  0
    1.4062    2.7658    1.3261 H   0  0  0  0  0  0  0  0  0  0  0  0
    0.9661   -1.3585   -1.3593 H   0  0  0  0  0  0  0  0  0  0  0  0
   -2.0410   -0.2449    0.0990 H   0  0  0  0  0  0  0  0  0  0  0  0
   -3.1892   -2.2615   -0.1815 H   0  0  0  0  0  0  0  0  0  0  0  0
   -4.2323   -4.6561    0.4824 H   0  0  0  0  0  0  0  0  0  0  0  0
   -4.1739   -4.5116   -1.2908 H   0  0  0  0  0  0  0  0  0  0  0  0
   -5.1454   -6.9159    0.2681 H   0  0  0  0  0  0  0  0  0  0  0  0
   -5.0869   -6.7713   -1.5051 H   0  0  0  0  0  0  0  0  0  0  0  0
  1  6  2  0  0  0  0
  1  2  1  0  0  0  0
  1 22  1  0  0  0  0
  2  3  2  0  0  0  0
  2 23  1  0  0  0  0
  3  4  1  0  0  0  0
  3 20  1  0  0  0  0
  4  5  2  0  0  0  0
  4 19  1  0  0  0  0
  5  6  1  0  0  0  0
  5 24  1  0  0  0  0
  6  7  1  0  0  0  0
  7  8  1  0  0  0  0
  7 25  1  0  0  0  0
  8  9  2  0  0  0  0
  8 10  1  0  0  0  0
 10 11  1  0  0  0  0
 10 26  1  0  0  0  0
 11 12  2  0  0  0  0
 11 13  1  0  0  0  0
 13 14  1  0  0  0  0
 13 27  1  0  0  0  0
 13 28  1  0  0  0  0
 14 15  1  0  0  0  0
 15 16  1  0  0  0  0
 15 29  1  0  0  0  0
 15 30  1  0  0  0  0
 16 17  2  0  0  0  0
 16 18  1  0  0  0  0
 20 21  3  0  0  0  0
M  END
$$$$
ZINC20557183
 OpenBabel01252620473D

 30 31  0  0  0  0  0  0  0  0999 V2000
    3.7436   -2.9882   -4.4255 C   0  0  0  0  0  0  0  0  0  0  0  0
    2.6004   -3.7192   -4.6973 C   0  0  0  0  0  0  0  0  0  0  0  0
    1.3704   -3.2671   -4.2671 C   0  0  0  0  0  0  0  0  0  0  0  0
    1.2804   -2.0690   -3.5553 C   0  0  0  0  0  0  0  0  0  0  0  0
    2.4378   -1.3369   -3.2842 C   0  0  0  0  0  0  0  0  0  0  0  0
    3.6611   -1.7981   -3.7250 C   0  0  0  0  0  0  0  0  0  0  0  0
    2.3504   -0.0426   -2.5172 C   0  0  0  0  0  0  0  0  0  0  0  0
    2.5132   -0.3795   -0.7422 S   0  0  0  0  0  0  0  0  0  0  0  0
    3.8285   -0.8297   -0.4481 O   0  0  0  0  0  0  0  0  0  0  0  0
    1.3800   -1.0980   -0.2744 O   0  0  0  0  0  0  0  0  0  0  0  0
    2.4022    1.1044   -0.0155 N   0  0  0  0  0  2  0  0  0  0  0  0
    1.2456    1.8769   -0.1744 C   0  0  0  0  0  0  0  0  0  0  0  0
    0.0034    1.2619   -0.2465 C   0  0  0  0  0  0  0  0  0  0  0  0
   -1.1365    2.0255   -0.4096 C   0  0  0  0  0  0  0  0  0  0  0  0
   -1.0425    3.4046   -0.4898 C   0  0  0  0  0  0  0  0  0  0  0  0
    0.1949    4.0218   -0.4184 C   0  0  0  0  0  0  0  0  0  0  0  0
    1.3393    3.2615   -0.2609 C   0  0  0  0  0  0  0  0  0  0  0  0
    2.5469    3.8633   -0.1915 F   0  0  0  0  0  0  0  0  0  0  0  0
   -2.1594    4.1488   -0.6442 F   0  0  0  0  0  0  0  0  0  0  0  0
    0.0066   -1.5934   -3.1059 C   0  0  0  0  0  0  0  0  0  0  0  0
   -1.0039   -1.2160   -2.7495 N   0  0  0  0  0  0  0  0  0  0  0  0
    4.7041   -3.3464   -4.7653 H   0  0  0  0  0  0  0  0  0  0  0  0
    2.6715   -4.6456   -5.2479 H   0  0  0  0  0  0  0  0  0  0  0  0
    0.4789   -3.8382   -4.4806 H   0  0  0  0  0  0  0  0  0  0  0  0
    4.5567   -1.2307   -3.5195 H   0  0  0  0  0  0  0  0  0  0  0  0
    3.1597    0.6294   -2.8386 H   0  0  0  0  0  0  0  0  0  0  0  0
    1.3786    0.4343   -2.7123 H   0  0  0  0  0  0  0  0  0  0  0  0
   -0.0717    0.1866   -0.1796 H   0  0  0  0  0  0  0  0  0  0  0  0
   -2.1025    1.5464   -0.4705 H   0  0  0  0  0  0  0  0  0  0  0  0
    0.2664    5.0973   -0.4860 H   0  0  0  0  0  0  0  0  0  0  0  0
  1  6  2  0  0  0  0
  1  2  1  0  0  0  0
  1 22  1  0  0  0  0
  2  3  2  0  0  0  0
  2 23  1  0  0  0  0
  3  4  1  0  0  0  0
  3 24  1  0  0  0  0
  4  5  2  0  0  0  0
  4 20  1  0  0  0  0
  5  6  1  0  0  0  0
  5  7  1  0  0  0  0
  6 25  1  0  0  0  0
  7  8  1  0  0  0  0
  7 26  1  0  0  0  0
  7 27  1  0  0  0  0
  8  9  2  0  0  0  0
  8 10  2  0  0  0  0
  8 11  1  0  0  0  0
 11 12  1  0  0  0  0
 12 17  2  0  0  0  0
 12 13  1  0  0  0  0
 13 14  2  0  0  0  0
 13 28  1  0  0  0  0
 14 15  1  0  0  0  0
 14 29  1  0  0  0  0
 15 16  2  0  0  0  0
 15 19  1  0  0  0  0
 16 17  1  0  0  0  0
 16 30  1  0  0  0  0
 17 18  1  0  0  0  0
 20 21  3  0  0  0  0
M  END
$$$$
ZINC09060801
 OpenBabel01252620473D

 46 47  0  0  0  0  0  0  0  0999 V2000
   -1.2178    1.7616    0.0173 C   0  0  0  0  0  0  0  0  0  0  0  0
   -0.0126    1.0758    0.0080 C   0  0  0  0  0  0  0  0  0  0  0  0
    1.1694    1.7916    0.0005 C   0  0  0  0  0  0  0  0  0  0  0  0
    1.1595    3.1104    0.0068 N   0  0  0  0  0  0  0  0  0  0  0  0
    0.0328    3.7952    0.0208 C   0  0  0  0  0  0  0  0  0  0  0  0
   -1.1883    3.1475    0.0293 C   0  0  0  0  0  0  0  0  0  0  0  0
    0.0769    5.3016    0.0279 C   0  0  0  0  0  0  0  0  0  0  0  0
    0.2244    5.7793    1.4050 N   0  0  0  0  0  0  0  0  0  0  0  0
   -0.9641    6.0545    2.2160 C   0  0  0  0  0  0  0  0  0  0  0  0
   -1.3714    4.7873    2.9705 C   0  0  0  0  0  0  0  0  0  0  0  0
   -2.8431    5.1281    3.9748 S   0  0  0  0  0  0  0  0  0  0  0  0
   -2.5206    6.0285    5.0258 O   0  0  0  0  0  0  0  0  0  0  0  0
   -3.9642    5.3666    3.1350 O   0  0  0  0  0  0  0  0  0  0  0  0
   -3.1811    3.6958    4.7342 N   0  0  0  0  0  0  0  0  0  0  0  0
   -4.0781    2.7051    4.1183 C   0  0  0  0  0  0  0  0  0  0  0  0
   -3.3689    1.3415    4.1342 C   0  0  0  0  0  0  0  0  0  0  0  0
   -2.9280    1.0577    5.4642 O   0  0  0  0  0  0  0  0  0  0  0  0
   -1.9653    1.9846    5.9720 C   0  0  0  0  0  0  0  0  0  0  0  0
   -2.5981    3.3788    6.0476 C   0  0  0  0  0  0  0  0  0  0  0  0
    1.4535    5.9655    1.9257 C   0  0  0  0  0  0  0  0  0  0  0  0
    1.5758    6.3618    3.0680 O   0  0  0  0  0  0  0  0  0  0  0  0
    2.6516    5.6881    1.1080 C   0  0  0  0  0  0  0  0  0  0  0  0
    3.8760    5.8736    1.6267 C   0  0  0  0  0  0  0  0  0  0  0  0
    5.0729    5.5964    0.8100 C   0  0  0  0  0  0  0  0  0  0  0  0
    4.9506    5.2004   -0.3316 O   0  0  0  0  0  0  0  0  0  0  0  0
   -2.1572    1.2286    0.0192 H   0  0  0  0  0  0  0  0  0  0  0  0
    0.0021   -0.0041    0.0020 H   0  0  0  0  0  0  0  0  0  0  0  0
    2.1122    1.2650   -0.0109 H   0  0  0  0  0  0  0  0  0  0  0  0
   -2.1077    3.7140    0.0404 H   0  0  0  0  0  0  0  0  0  0  0  0
    0.9235    5.6431   -0.5677 H   0  0  0  0  0  0  0  0  0  0  0  0
   -0.8474    5.6942   -0.3958 H   0  0  0  0  0  0  0  0  0  0  0  0
   -0.7409    6.8468    2.9305 H   0  0  0  0  0  0  0  0  0  0  0  0
   -1.7815    6.3697    1.5675 H   0  0  0  0  0  0  0  0  0  0  0  0
   -1.5946    3.9949    2.2560 H   0  0  0  0  0  0  0  0  0  0  0  0
   -0.5540    4.4720    3.6190 H   0  0  0  0  0  0  0  0  0  0  0  0
   -5.0059    2.6462    4.6873 H   0  0  0  0  0  0  0  0  0  0  0  0
   -4.2951    2.9954    3.0903 H   0  0  0  0  0  0  0  0  0  0  0  0
   -2.5100    1.3670    3.4636 H   0  0  0  0  0  0  0  0  0  0  0  0
   -4.0636    0.5674    3.8080 H   0  0  0  0  0  0  0  0  0  0  0  0
   -1.1013    2.0125    5.3080 H   0  0  0  0  0  0  0  0  0  0  0  0
   -1.6502    1.6733    6.9679 H   0  0  0  0  0  0  0  0  0  0  0  0
   -1.8346    4.1154    6.2978 H   0  0  0  0  0  0  0  0  0  0  0  0
   -3.3795    3.3866    6.8076 H   0  0  0  0  0  0  0  0  0  0  0  0
    2.5429    5.3359    0.0929 H   0  0  0  0  0  0  0  0  0  0  0  0
    3.9847    6.2258    2.6419 H   0  0  0  0  0  0  0  0  0  0  0  0
    6.3017    5.7827    1.3306 O   0  0  0  0  0  1  0  0  0  0  0  0
  1  6  2  0  0  0  0
  1  2  1  0  0  0  0
  1 26  1  0  0  0  0
  2  3  2  0  0  0  0
  2 27  1  0  0  0  0
  3  4  1  0  0  0  0
  3 28  1  0  0  0  0
  4  5  2  0  0  0  0
  5  6  1  0  0  0  0
  5  7  1  0  0  0  0
  6 29  1  0  0  0  0
  7  8  1  0  0  0  0
  7 30  1  0  0  0  0
  7 31  1  0  0  0  0
  8  9  1  0  0  0  0
  8 20  1  0  0  0  0
  9 10  1  0  0  0  0
  9 32  1  0  0  0  0
  9 33  1  0  0  0  0
 10 11  1  0  0  0  0
 10 34  1  0  0  0  0
 10 35  1  0  0  0  0
 11 12  2  0  0  0  0
 11 13  2  0  0  0  0
 11 14  1  0  0  0  0
 14 19  1  0  0  0  0
 14 15  1  0  0  0  0
 15 16  1  0  0  0  0
 15 36  1  0  0  0  0
 15 37  1  0  0  0  0
 16 17  1  0  0  0  0
 16 38  1  0  0  0  0
 16 39  1  0  0  0  0
 17 18  1  0  0  0  0
 18 19  1  0  0  0  0
 18 40  1  0  0  0  0
 18 41  1  0  0  0  0
 19 42  1  0  0  0  0
 19 43  1  0  0  0  0
 20 21  2  0  0  0  0
 20 22  1  0  0  0  0
 22 23  2  0  0  0  0
 22 44  1  0  0  0  0
 23 24  1  0  0  0  0
 23 45  1  0  0  0  0
 24 25  2  0  0  0  0
 24 46  1  0  0  0  0
M  END
$$$$
ZINC16910311
 OpenBabel01252620473D

 45 47  0  0  1  0  0  0  0  0999 V2000
    5.2493    5.9086   -3.0022 C   0  0  0  0  0  0  0  0  0  0  0  0
    4.8857    6.3217   -1.5746 C   0  0  1  0  0  0  0  0  0  0  0  0
    5.7956    6.4254   -0.9835 H   0  0  0  0  0  0  0  0  0  0  0  0
    4.1530    7.6383   -1.6039 C   0  0  0  0  0  0  0  0  0  0  0  0
    3.0288    7.7139   -1.1676 O   0  0  0  0  0  0  0  0  0  0  0  0
    4.0480    5.3234   -0.9885 O   0  0  0  0  0  0  0  0  0  0  0  0
    4.6664    4.2905   -0.3617 C   0  0  0  0  0  0  0  0  0  0  0  0
    6.0460    4.1727   -0.4096 C   0  0  0  0  0  0  0  0  0  0  0  0
    6.6746    3.1203    0.2281 C   0  0  0  0  0  0  0  0  0  0  0  0
    5.9342    2.1754    0.9200 C   0  0  0  0  0  0  0  0  0  0  0  0
    4.5619    2.2780    0.9842 C   0  0  0  0  0  0  0  0  0  0  0  0
    3.9108    3.3355    0.3382 C   0  0  0  0  0  0  0  0  0  0  0  0
    2.4485    3.4490    0.3970 C   0  0  0  0  0  0  0  0  0  0  0  0
    1.6776    2.3340    0.3227 C   0  0  0  0  0  0  0  0  0  0  0  0
    2.0682    0.9359    0.0531 C   0  0  0  0  0  0  0  0  0  0  0  0
    3.2274    0.6231   -0.1461 O   0  0  0  0  0  0  0  0  0  0  0  0
    1.0949    0.0408    0.0391 N   0  0  0  0  0  0  0  0  0  0  0  0
   -0.1883    0.3918    0.2603 C   0  0  0  0  0  0  0  0  0  0  0  0
   -1.5759   -0.6107    0.2836 S   0  0  0  0  0  0  0  0  0  0  0  0
   -0.0897    2.1551    0.5236 S   0  0  0  0  0  0  0  0  0  0  0  0
    1.4037   -1.3025   -0.2118 N   0  0  0  0  0  0  0  0  0  0  0  0
    1.4037   -1.8759   -1.7654 S   0  0  0  0  0  0  0  0  0  0  0  0
    1.8892   -3.2101   -1.7058 O   0  0  0  0  0  0  0  0  0  0  0  0
    0.1358   -1.5506   -2.3184 O   0  0  0  0  0  0  0  0  0  0  0  0
    2.5992   -0.9447   -2.6644 C   0  0  0  0  0  0  0  0  0  0  0  0
    2.2241    0.2153   -3.3162 C   0  0  0  0  0  0  0  0  0  0  0  0
    3.1629    0.9482   -4.0179 C   0  0  0  0  0  0  0  0  0  0  0  0
    4.4748    0.5163   -4.0754 C   0  0  0  0  0  0  0  0  0  0  0  0
    4.8488   -0.6464   -3.4280 C   0  0  0  0  0  0  0  0  0  0  0  0
    3.9109   -1.3770   -2.7227 C   0  0  0  0  0  0  0  0  0  0  0  0
    5.7792    4.9563   -2.9810 H   0  0  0  0  0  0  0  0  0  0  0  0
    4.3394    5.8050   -3.5933 H   0  0  0  0  0  0  0  0  0  0  0  0
    5.8883    6.6701   -3.4492 H   0  0  0  0  0  0  0  0  0  0  0  0
    6.6312    4.9046   -0.9466 H   0  0  0  0  0  0  0  0  0  0  0  0
    7.7504    3.0339    0.1872 H   0  0  0  0  0  0  0  0  0  0  0  0
    6.4357    1.3569    1.4148 H   0  0  0  0  0  0  0  0  0  0  0  0
    3.9892    1.5417    1.5285 H   0  0  0  0  0  0  0  0  0  0  0  0
    1.9859    4.4196    0.4994 H   0  0  0  0  0  0  0  0  0  0  0  0
    1.6176   -1.8966    0.5245 H   0  0  0  0  0  0  0  0  0  0  0  0
    1.1984    0.5507   -3.2744 H   0  0  0  0  0  0  0  0  0  0  0  0
    2.8709    1.8568   -4.5234 H   0  0  0  0  0  0  0  0  0  0  0  0
    5.2077    1.0875   -4.6259 H   0  0  0  0  0  0  0  0  0  0  0  0
    5.8737   -0.9838   -3.4729 H   0  0  0  0  0  0  0  0  0  0  0  0
    4.2030   -2.2854   -2.2169 H   0  0  0  0  0  0  0  0  0  0  0  0
    4.7493    8.7270   -2.1146 O   0  0  0  0  0  1  0  0  0  0  0  0
  1  2  1  0  0  0  0
  1 31  1  0  0  0  0
  1 32  1  0  0  0  0
  1 33  1  0  0  0  0
  2  3  1  1  0  0  0
  2  4  1  0  0  0  0
  2  6  1  0  0  0  0
  4  5  2  0  0  0  0
  4 45  1  0  0  0  0
  6  7  1  0  0  0  0
  7 12  2  0  0  0  0
  7  8  1  0  0  0  0
  8  9  2  0  0  0  0
  8 34  1  0  0  0  0
  9 10  1  0  0  0  0
  9 35  1  0  0  0  0
 10 11  2  0  0  0  0
 10 36  1  0  0  0  0
 11 12  1  0  0  0  0
 11 37  1  0  0  0  0
 12 13  1  0  0  0  0
 13 14  2  0  0  0  0
 13 38  1  0  0  0  0
 14 20  1  0  0  0  0
 14 15  1  0  0  0  0
 15 16  2  0  0  0  0
 15 17  1  0  0  0  0
 17 18  1  0  0  0  0
 17 21  1  0  0  0  0
 18 19  2  0  0  0  0
 18 20  1  0  0  0  0
 21 22  1  0  0  0  0
 21 39  1  0  0  0  0
 22 23  2  0  0  0  0
 22 24  2  0  0  0  0
 22 25  1  0  0  0  0
 25 30  2  0  0  0  0
 25 26  1  0  0  0  0
 26 27  2  0  0  0  0
 26 40  1  0  0  0  0
 27 28  1  0  0  0  0
 27 41  1  0  0  0  0
 28 29  2  0  0  0  0
 28 42  1  0  0  0  0
 29 30  1  0  0  0  0
 29 43  1  0  0  0  0
 30 44  1  0  0  0  0
M  END
$$$$
ZINC62672239
 OpenBabel01252620473D

 30 31  0  0  0  0  0  0  0  0999 V2000
   -0.4422    1.4658   -0.1033 C   0  0  0  0  0  0  0  0  0  0  0  0
   -0.2040   -0.0215   -0.0527 C   0  0  0  0  0  0  0  0  0  0  0  0
   -0.0692   -0.7626   -1.2598 C   0  0  0  0  0  0  0  0  0  0  0  0
   -0.1426   -0.2142   -2.3463 O   0  0  0  0  0  0  0  0  0  0  0  0
    0.1620   -2.2113   -1.1551 C   0  0  0  0  0  0  0  0  0  0  0  0
    0.3054   -3.0077   -2.2938 C   0  0  0  0  0  0  0  0  0  0  0  0
    0.5197   -4.3509   -2.1585 C   0  0  0  0  0  0  0  0  0  0  0  0
    0.5957   -4.9312   -0.8932 C   0  0  0  0  0  0  0  0  0  0  0  0
    0.4567   -4.1613    0.2427 C   0  0  0  0  0  0  0  0  0  0  0  0
    0.2383   -2.7914    0.1261 C   0  0  0  0  0  0  0  0  0  0  0  0
    0.0972   -2.0002    1.2418 N   0  0  0  0  0  0  0  0  0  0  0  0
   -0.1124   -0.6543    1.1437 C   0  0  0  0  0  0  0  0  0  0  0  0
   -0.2497    0.1408    2.3861 C   0  0  0  0  0  0  0  0  0  0  0  0
   -1.3256    0.1912    2.9636 O   0  0  0  0  0  0  0  0  0  0  0  0
    0.7129    0.7465    2.8334 O   0  0  0  0  0  1  0  0  0  0  0  0
    0.1785   -2.6157    2.5687 C   0  0  0  0  0  0  0  0  0  0  0  0
    1.6462   -2.7491    2.9799 C   0  0  0  0  0  0  0  0  0  0  0  0
    2.2188   -1.4486    3.1306 O   0  0  0  0  0  0  0  0  0  0  0  0
    0.8071   -6.2606   -0.7786 F   0  0  0  0  0  0  0  0  0  0  0  0
    0.6584   -5.1219   -3.2592 F   0  0  0  0  0  0  0  0  0  0  0  0
    0.5097    1.9894   -0.0149 H   0  0  0  0  0  0  0  0  0  0  0  0
   -0.9135    1.7262   -1.0510 H   0  0  0  0  0  0  0  0  0  0  0  0
   -1.0951    1.7573    0.7194 H   0  0  0  0  0  0  0  0  0  0  0  0
    0.2468   -2.5641   -3.2767 H   0  0  0  0  0  0  0  0  0  0  0  0
    0.5166   -4.6195    1.2189 H   0  0  0  0  0  0  0  0  0  0  0  0
   -0.3460   -1.9910    3.2917 H   0  0  0  0  0  0  0  0  0  0  0  0
   -0.2820   -3.6032    2.5401 H   0  0  0  0  0  0  0  0  0  0  0  0
    1.7111   -3.2865    3.9260 H   0  0  0  0  0  0  0  0  0  0  0  0
    2.1902   -3.2988    2.2118 H   0  0  0  0  0  0  0  0  0  0  0  0
    3.1501   -1.4566    3.3909 H   0  0  0  0  0  0  0  0  0  0  0  0
  1  2  1  0  0  0  0
  1 21  1  0  0  0  0
  1 22  1  0  0  0  0
  1 23  1  0  0  0  0
  2 12  2  0  0  0  0
  2  3  1  0  0  0  0
  3  4  2  0  0  0  0
  3  5  1  0  0  0  0
  5 10  2  0  0  0  0
  5  6  1  0  0  0  0
  6  7  2  0  0  0  0
  6 24  1  0  0  0  0
  7  8  1  0  0  0  0
  7 20  1  0  0  0  0
  8  9  2  0  0  0  0
  8 19  1  0  0  0  0
  9 10  1  0  0  0  0
  9 25  1  0  0  0  0
 10 11  1  0  0  0  0
 11 12  1  0  0  0  0
 11 16  1  0  0  0  0
 12 13  1  0  0  0  0
 13 14  2  0  0  0  0
 13 15  1  0  0  0  0
 16 17  1  0  0  0  0
 16 26  1  0  0  0  0
 16 27  1  0  0  0  0
 17 18  1  0  0  0  0
 17 28  1  0  0  0  0
 17 29  1  0  0  0  0
 18 30  1  0  0  0  0
M  END
$$$$
ZINC40101356
 OpenBabel01252620473D

 51 53  0  0  1  0  0  0  0  0999 V2000
   -4.2860   -0.9174   -0.9438 C   0  0  0  0  0  0  0  0  0  0  0  0
   -3.0571   -1.7871   -0.6710 C   0  0  0  0  0  0  0  0  0  0  0  0
   -2.5400   -2.3670   -1.9890 C   0  0  0  0  0  0  0  0  0  0  0  0
   -1.3922   -3.1793   -1.7343 O   0  0  0  0  0  0  0  0  0  0  0  0
   -0.8064   -3.7734   -2.8070 C   0  0  0  0  0  0  0  0  0  0  0  0
   -1.3240   -3.5727   -4.0802 C   0  0  0  0  0  0  0  0  0  0  0  0
   -0.7326   -4.1749   -5.1755 C   0  0  0  0  0  0  0  0  0  0  0  0
    0.3761   -4.9795   -5.0110 C   0  0  0  0  0  0  0  0  0  0  0  0
    0.9041   -5.1869   -3.7349 C   0  0  0  0  0  0  0  0  0  0  0  0
    0.3092   -4.5737   -2.6309 C   0  0  0  0  0  0  0  0  0  0  0  0
    2.0922   -6.0485   -3.5544 C   0  0  0  0  0  0  0  0  0  0  0  0
    2.5926   -6.1717   -2.4523 O   0  0  0  0  0  0  0  0  0  0  0  0
    2.6672   -6.7542   -4.7034 C   0  0  0  0  0  0  0  0  0  0  0  0
    2.6861   -8.0931   -4.9016 C   0  0  0  0  0  0  0  0  0  0  0  0
    3.3602   -8.3845   -6.1845 C   0  0  0  0  0  0  0  0  0  0  0  0
    3.5348   -9.4956   -6.6439 O   0  0  0  0  0  0  0  0  0  0  0  0
    3.7514   -7.2373   -6.7685 N   0  0  0  0  0  0  0  0  0  0  0  0
    3.3471   -6.1270   -5.8980 C   0  0  2  0  0  0  0  0  0  0  0  0
    2.6529   -5.4704   -6.4224 H   0  0  0  0  0  0  0  0  0  0  0  0
    4.5609   -5.3513   -5.4551 C   0  0  0  0  0  0  0  0  0  0  0  0
    5.7581   -6.0077   -5.2358 C   0  0  0  0  0  0  0  0  0  0  0  0
    6.8734   -5.2990   -4.8295 C   0  0  0  0  0  0  0  0  0  0  0  0
    6.7942   -3.9326   -4.6411 C   0  0  0  0  0  0  0  0  0  0  0  0
    5.5945   -3.2718   -4.8604 C   0  0  0  0  0  0  0  0  0  0  0  0
    4.4781   -3.9845   -5.2741 C   0  0  0  0  0  0  0  0  0  0  0  0
    5.5140   -1.9278   -4.6759 O   0  0  0  0  0  0  0  0  0  0  0  0
    4.4523   -7.1173   -8.0493 C   0  0  0  0  0  0  0  0  0  0  0  0
    3.4297   -6.9919   -9.1805 C   0  0  0  0  0  0  0  0  0  0  0  0
    2.7022   -5.7709   -9.0318 O   0  0  0  0  0  0  0  0  0  0  0  0
    2.1707   -9.0176   -4.0592 O   0  5  0  0  0  0  0  0  0  0  0  0
   -4.0134   -0.1041   -1.6164 H   0  0  0  0  0  0  0  0  0  0  0  0
   -5.0655   -1.5241   -1.4045 H   0  0  0  0  0  0  0  0  0  0  0  0
   -4.6544   -0.5042   -0.0048 H   0  0  0  0  0  0  0  0  0  0  0  0
   -2.2776   -1.1803   -0.2103 H   0  0  0  0  0  0  0  0  0  0  0  0
   -3.3297   -2.6003    0.0016 H   0  0  0  0  0  0  0  0  0  0  0  0
   -3.3195   -2.9737   -2.4497 H   0  0  0  0  0  0  0  0  0  0  0  0
   -2.2674   -1.5537   -2.6617 H   0  0  0  0  0  0  0  0  0  0  0  0
   -2.1919   -2.9443   -4.2151 H   0  0  0  0  0  0  0  0  0  0  0  0
   -1.1401   -4.0152   -6.1628 H   0  0  0  0  0  0  0  0  0  0  0  0
    0.8351   -5.4489   -5.8685 H   0  0  0  0  0  0  0  0  0  0  0  0
    0.7152   -4.7270   -1.6419 H   0  0  0  0  0  0  0  0  0  0  0  0
    5.8219   -7.0759   -5.3819 H   0  0  0  0  0  0  0  0  0  0  0  0
    7.8073   -5.8140   -4.6589 H   0  0  0  0  0  0  0  0  0  0  0  0
    7.6656   -3.3795   -4.3231 H   0  0  0  0  0  0  0  0  0  0  0  0
    3.5441   -3.4716   -5.4501 H   0  0  0  0  0  0  0  0  0  0  0  0
    5.7164   -1.4094   -5.4667 H   0  0  0  0  0  0  0  0  0  0  0  0
    5.0878   -6.2318   -8.0342 H   0  0  0  0  0  0  0  0  0  0  0  0
    5.0668   -8.0028   -8.2116 H   0  0  0  0  0  0  0  0  0  0  0  0
    3.9472   -6.9920  -10.1398 H   0  0  0  0  0  0  0  0  0  0  0  0
    2.7385   -7.8338   -9.1405 H   0  0  0  0  0  0  0  0  0  0  0  0
    2.0348   -5.6249   -9.7161 H   0  0  0  0  0  0  0  0  0  0  0  0
  1  2  1  0  0  0  0
  1 31  1  0  0  0  0
  1 32  1  0  0  0  0
  1 33  1  0  0  0  0
  2  3  1  0  0  0  0
  2 34  1  0  0  0  0
  2 35  1  0  0  0  0
  3  4  1  0  0  0  0
  3 36  1  0  0  0  0
  3 37  1  0  0  0  0
  4  5  1  0  0  0  0
  5 10  2  0  0  0  0
  5  6  1  0  0  0  0
  6  7  2  0  0  0  0
  6 38  1  0  0  0  0
  7  8  1  0  0  0  0
  7 39  1  0  0  0  0
  8  9  2  0  0  0  0
  8 40  1  0  0  0  0
  9 10  1  0  0  0  0
  9 11  1  0  0  0  0
 10 41  1  0  0  0  0
 11 12  2  0  0  0  0
 11 13  1  0  0  0  0
 13 18  1  0  0  0  0
 13 14  2  0  0  0  0
 14 15  1  0  0  0  0
 14 30  1  0  0  0  0
 15 16  2  0  0  0  0
 15 17  1  0  0  0  0
 17 18  1  0  0  0  0
 17 27  1  0  0  0  0
 18 19  1  6  0  0  0
 18 20  1  0  0  0  0
 20 25  2  0  0  0  0
 20 21  1  0  0  0  0
 21 22  2  0  0  0  0
 21 42  1  0  0  0  0
 22 23  1  0  0  0  0
 22 43  1  0  0  0  0
 23 24  2  0  0  0  0
 23 44  1  0  0  0  0
 24 25  1  0  0  0  0
 24 26  1  0  0  0  0
 25 45  1  0  0  0  0
 26 46  1  0  0  0  0
 27 28  1  0  0  0  0
 27 47  1  0  0  0  0
 27 48  1  0  0  0  0
 28 29  1  0  0  0  0
 28 49  1  0  0  0  0
 28 50  1  0  0  0  0
 29 51  1  0  0  0  0
M  CHG  1  30  -1
M  END
$$$$
ZINC13192315
 OpenBabel01252620473D

 44 46  0  0  0  0  0  0  0  0999 V2000
    7.2147   16.1341   -0.1555 C   0  0  0  0  0  0  0  0  0  0  0  0
    6.1901   15.0301   -0.1067 C   0  0  0  0  0  0  0  0  0  0  0  0
    6.3029   13.9462   -0.9579 C   0  0  0  0  0  0  0  0  0  0  0  0
    5.3653   12.9324   -0.9171 C   0  0  0  0  0  0  0  0  0  0  0  0
    4.3083   13.0016   -0.0200 C   0  0  0  0  0  0  0  0  0  0  0  0
    4.1940   14.0948    0.8317 C   0  0  0  0  0  0  0  0  0  0  0  0
    5.1391   15.1037    0.7887 C   0  0  0  0  0  0  0  0  0  0  0  0
    3.1639   14.1692    1.7027 F   0  0  0  0  0  0  0  0  0  0  0  0
    3.3561   11.9756    0.0232 N   0  0  0  0  0  0  0  0  0  0  0  0
    3.7289   10.7003   -0.2025 C   0  0  0  0  0  0  0  0  0  0  0  0
    4.8719   10.4501   -0.5223 O   0  0  0  0  0  0  0  0  0  0  0  0
    2.7257    9.5851   -0.0576 C   0  0  0  0  0  0  0  0  0  0  0  0
    3.5251    8.0031   -0.4243 S   0  0  0  0  0  0  0  0  0  0  0  0
    2.1641    6.9099   -0.1850 C   0  0  0  0  0  0  0  0  0  0  0  0
    0.9442    7.2496    0.1642 N   0  0  0  0  0  0  0  0  0  0  0  0
    0.2010    6.2049    0.2499 N   0  0  0  0  0  0  0  0  0  0  0  0
    0.9017    5.1306   -0.0398 C   0  0  0  0  0  0  0  0  0  0  0  0
    2.1830    5.5495   -0.3221 N   0  0  0  0  0  0  0  0  0  0  0  0
    3.3266    4.7128   -0.6939 C   0  0  0  0  0  0  0  0  0  0  0  0
    3.3729    4.5592   -2.2155 C   0  0  0  0  0  0  0  0  0  0  0  0
    4.5493    3.6985   -2.5979 C   0  0  0  0  0  0  0  0  0  0  0  0
    5.2761    3.2535   -1.7414 O   0  0  0  0  0  0  0  0  0  0  0  0
    0.4114    3.7430   -0.0535 C   0  0  0  0  0  0  0  0  0  0  0  0
   -0.8811    3.2826   -0.0529 C   0  0  0  0  0  0  0  0  0  0  0  0
   -1.0981    1.9231   -0.0732 C   0  0  0  0  0  0  0  0  0  0  0  0
   -0.0316    1.0822   -0.0831 C   0  0  0  0  0  0  0  0  0  0  0  0
    1.3436    2.2204   -0.0761 S   0  0  0  0  0  0  0  0  0  0  0  0
    6.8971   16.8933   -0.8701 H   0  0  0  0  0  0  0  0  0  0  0  0
    7.3121   16.5834    0.8328 H   0  0  0  0  0  0  0  0  0  0  0  0
    8.1762   15.7239   -0.4645 H   0  0  0  0  0  0  0  0  0  0  0  0
    7.1252   13.8922   -1.6559 H   0  0  0  0  0  0  0  0  0  0  0  0
    5.4544   12.0869   -1.5830 H   0  0  0  0  0  0  0  0  0  0  0  0
    5.0538   15.9516    1.4522 H   0  0  0  0  0  0  0  0  0  0  0  0
    2.4282   12.1828    0.2156 H   0  0  0  0  0  0  0  0  0  0  0  0
    1.9014    9.7453   -0.7524 H   0  0  0  0  0  0  0  0  0  0  0  0
    2.3432    9.5709    0.9630 H   0  0  0  0  0  0  0  0  0  0  0  0
    4.2477    5.1817   -0.3478 H   0  0  0  0  0  0  0  0  0  0  0  0
    3.2234    3.7306   -0.2326 H   0  0  0  0  0  0  0  0  0  0  0  0
    2.4518    4.0903   -2.5615 H   0  0  0  0  0  0  0  0  0  0  0  0
    3.4761    5.5414   -2.6768 H   0  0  0  0  0  0  0  0  0  0  0  0
   -1.7117    3.9728   -0.0411 H   0  0  0  0  0  0  0  0  0  0  0  0
   -2.1041    1.5302   -0.0780 H   0  0  0  0  0  0  0  0  0  0  0  0
   -0.0189    0.0024   -0.0965 H   0  0  0  0  0  0  0  0  0  0  0  0
    4.7897    3.4262   -3.8901 O   0  0  0  0  0  1  0  0  0  0  0  0
  1  2  1  0  0  0  0
  1 28  1  0  0  0  0
  1 29  1  0  0  0  0
  1 30  1  0  0  0  0
  2  7  2  0  0  0  0
  2  3  1  0  0  0  0
  3  4  2  0  0  0  0
  3 31  1  0  0  0  0
  4  5  1  0  0  0  0
  4 32  1  0  0  0  0
  5  6  2  0  0  0  0
  5  9  1  0  0  0  0
  6  7  1  0  0  0  0
  6  8  1  0  0  0  0
  7 33  1  0  0  0  0
  9 10  1  0  0  0  0
  9 34  1  0  0  0  0
 10 11  2  0  0  0  0
 10 12  1  0  0  0  0
 12 13  1  0  0  0  0
 12 35  1  0  0  0  0
 12 36  1  0  0  0  0
 13 14  1  0  0  0  0
 14 18  1  0  0  0  0
 14 15  2  0  0  0  0
 15 16  1  0  0  0  0
 16 17  2  0  0  0  0
 17 18  1  0  0  0  0
 17 23  1  0  0  0  0
 18 19  1  0  0  0  0
 19 20  1  0  0  0  0
 19 37  1  0  0  0  0
 19 38  1  0  0  0  0
 20 21  1  0  0  0  0
 20 39  1  0  0  0  0
 20 40  1  0  0  0  0
 21 22  2  0  0  0  0
 21 44  1  0  0  0  0
 23 27  1  0  0  0  0
 23 24  2  0  0  0  0
 24 25  1  0  0  0  0
 24 41  1  0  0  0  0
 25 26  2  0  0  0  0
 25 42  1  0  0  0  0
 26 27  1  0  0  0  0
 26 43  1  0  0  0  0
M  END
$$$$
ZINC38755924
 OpenBabel01252620473D

 38 39  0  0  0  0  0  0  0  0999 V2000
   -2.8843   -1.0388    0.1184 C   0  0  0  0  0  0  0  0  0  0  0  0
   -1.4331   -1.2574    0.0536 N   0  0  0  0  0  0  0  0  0  0  0  0
   -0.9552   -1.9756    1.2427 C   0  0  0  0  0  0  0  0  0  0  0  0
    0.5763   -2.0240    1.2250 C   0  0  0  0  0  0  0  0  0  0  0  0
    1.0110   -2.5911   -0.0606 N   0  0  0  0  0  0  0  0  0  0  0  0
    0.4656   -2.0108   -1.2971 C   0  0  0  0  0  0  0  0  0  0  0  0
   -1.0616   -1.9630   -1.1801 C   0  0  0  0  0  0  0  0  0  0  0  0
    1.8862   -3.6152   -0.1043 C   0  0  0  0  0  0  0  0  0  0  0  0
    2.1540   -4.1410   -1.1675 O   0  0  0  0  0  0  0  0  0  0  0  0
    2.5188   -4.0978    1.1370 C   0  0  0  0  0  0  0  0  0  0  0  0
    3.1920   -3.2029    1.9743 C   0  0  0  0  0  0  0  0  0  0  0  0
    3.7783   -3.6502    3.1237 C   0  0  0  0  0  0  0  0  0  0  0  0
    3.7087   -4.9979    3.4678 C   0  0  0  0  0  0  0  0  0  0  0  0
    3.0412   -5.8968    2.6417 C   0  0  0  0  0  0  0  0  0  0  0  0
    2.4421   -5.4515    1.4829 C   0  0  0  0  0  0  0  0  0  0  0  0
    1.6020   -6.5676    0.4522 Cl  0  0  0  0  0  0  0  0  0  0  0  0
    4.3080   -5.4463    4.6397 N   0  0  0  0  0  2  0  0  0  0  0  0
    4.2264   -7.0483    5.0509 S   0  0  0  0  0  0  0  0  0  0  0  0
    2.8432   -7.2996    5.2577 O   0  0  0  0  0  0  0  0  0  0  0  0
    4.9395   -7.7231    4.0236 O   0  0  0  0  0  0  0  0  0  0  0  0
    5.1258   -7.1730    6.6213 C   0  0  0  0  0  0  0  0  0  0  0  0
   -3.3978   -2.0000    0.0974 H   0  0  0  0  0  0  0  0  0  0  0  0
   -3.1319   -0.5148    1.0416 H   0  0  0  0  0  0  0  0  0  0  0  0
   -3.1999   -0.4394   -0.7355 H   0  0  0  0  0  0  0  0  0  0  0  0
   -1.2924   -1.4575    2.1405 H   0  0  0  0  0  0  0  0  0  0  0  0
   -1.3513   -2.9911    1.2379 H   0  0  0  0  0  0  0  0  0  0  0  0
    0.9758   -1.0157    1.3342 H   0  0  0  0  0  0  0  0  0  0  0  0
    0.9322   -2.6523    2.0414 H   0  0  0  0  0  0  0  0  0  0  0  0
    0.8545   -1.0013   -1.4304 H   0  0  0  0  0  0  0  0  0  0  0  0
    0.7484   -2.6305   -2.1481 H   0  0  0  0  0  0  0  0  0  0  0  0
   -1.4561   -2.9786   -1.1512 H   0  0  0  0  0  0  0  0  0  0  0  0
   -1.4758   -1.4357   -2.0395 H   0  0  0  0  0  0  0  0  0  0  0  0
    3.2486   -2.1568    1.7116 H   0  0  0  0  0  0  0  0  0  0  0  0
    4.2981   -2.9565    3.7679 H   0  0  0  0  0  0  0  0  0  0  0  0
    2.9891   -6.9416    2.9102 H   0  0  0  0  0  0  0  0  0  0  0  0
    4.6443   -6.5403    7.3669 H   0  0  0  0  0  0  0  0  0  0  0  0
    5.1180   -8.2079    6.9633 H   0  0  0  0  0  0  0  0  0  0  0  0
    6.1554   -6.8456    6.4773 H   0  0  0  0  0  0  0  0  0  0  0  0
  1  2  1  0  0  0  0
  1 22  1  0  0  0  0
  1 23  1  0  0  0  0
  1 24  1  0  0  0  0
  2  7  1  0  0  0  0
  2  3  1  0  0  0  0
  3  4  1  0  0  0  0
  3 25  1  0  0  0  0
  3 26  1  0  0  0  0
  4  5  1  0  0  0  0
  4 27  1  0  0  0  0
  4 28  1  0  0  0  0
  5  6  1  0  0  0  0
  5  8  1  0  0  0  0
  6  7  1  0  0  0  0
  6 29  1  0  0  0  0
  6 30  1  0  0  0  0
  7 31  1  0  0  0  0
  7 32  1  0  0  0  0
  8  9  2  0  0  0  0
  8 10  1  0  0  0  0
 10 15  2  0  0  0  0
 10 11  1  0  0  0  0
 11 12  2  0  0  0  0
 11 33  1  0  0  0  0
 12 13  1  0  0  0  0
 12 34  1  0  0  0  0
 13 14  2  0  0  0  0
 13 17  1  0  0  0  0
 14 15  1  0  0  0  0
 14 35  1  0  0  0  0
 15 16  1  0  0  0  0
 17 18  1  0  0  0  0
 18 19  2  0  0  0  0
 18 20  2  0  0  0  0
 18 21  1  0  0  0  0
 21 36  1  0  0  0  0
 21 37  1  0  0  0  0
 21 38  1  0  0  0  0
M  END
$$$$
ZINC51429644
 OpenBabel01252620473D

 41 42  0  0  0  0  0  0  0  0999 V2000
    0.8529    1.5345   -0.6027 C   0  0  0  0  0  0  0  0  0  0  0  0
    0.9112    0.0289   -0.6255 C   0  0  0  0  0  0  0  0  0  0  0  0
    1.8638   -0.5485   -0.1455 O   0  0  0  0  0  0  0  0  0  0  0  0
   -0.0952   -0.6762   -1.1792 N   0  0  0  0  0  0  0  0  0  0  0  0
   -0.0023   -2.0703   -1.2774 C   0  0  0  0  0  0  0  0  0  0  0  0
   -0.5378   -2.7260   -2.3784 C   0  0  0  0  0  0  0  0  0  0  0  0
   -0.4463   -4.0999   -2.4753 C   0  0  0  0  0  0  0  0  0  0  0  0
    0.1817   -4.8266   -1.4719 C   0  0  0  0  0  0  0  0  0  0  0  0
    0.7176   -4.1707   -0.3711 C   0  0  0  0  0  0  0  0  0  0  0  0
    0.6303   -2.7963   -0.2767 C   0  0  0  0  0  0  0  0  0  0  0  0
    0.2741   -6.2199   -1.5699 N   0  0  0  0  0  0  0  0  0  0  0  0
    0.4526   -6.8060   -2.7844 C   0  0  0  0  0  0  0  0  0  0  0  0
    0.4619   -6.0531   -3.9002 O   0  5  0  0  0  0  0  0  0  0  0  0
    0.6266   -8.1905   -2.8738 C   0  0  0  0  0  0  0  0  0  0  0  0
    0.6167   -8.9914   -1.6868 C   0  0  0  0  0  0  0  0  0  0  0  0
    0.6089   -9.6268   -0.7451 N   0  0  0  0  0  0  0  0  0  0  0  0
    0.8115   -8.7975   -4.1317 C   0  0  0  0  0  0  0  0  0  0  0  0
    0.8199   -8.1179   -5.1389 O   0  0  0  0  0  0  0  0  0  0  0  0
    0.9990  -10.2897   -4.2280 C   0  0  0  0  0  0  0  0  0  0  0  0
    1.1699  -10.6708   -5.6322 N   0  0  0  0  0  0  0  0  0  0  0  0
    2.2007  -11.3757   -6.1438 C   0  0  0  0  0  0  0  0  0  0  0  0
    1.9855  -11.5159   -7.4723 C   0  0  0  0  0  0  0  0  0  0  0  0
    0.7819  -10.8747   -7.7834 C   0  0  0  0  0  0  0  0  0  0  0  0
    0.2892  -10.3729   -6.6801 N   0  0  0  0  0  0  0  0  0  0  0  0
    0.1572  -10.7836   -9.1517 C   0  0  0  0  0  0  0  0  0  0  0  0
   -0.6920  -11.8775   -9.3505 F   0  0  0  0  0  0  0  0  0  0  0  0
   -0.5788   -9.5979   -9.2504 F   0  0  0  0  0  0  0  0  0  0  0  0
    1.1624  -10.7908  -10.1247 F   0  0  0  0  0  0  0  0  0  0  0  0
    1.3165    1.9298   -1.5065 H   0  0  0  0  0  0  0  0  0  0  0  0
   -0.1873    1.8572   -0.5570 H   0  0  0  0  0  0  0  0  0  0  0  0
    1.3872    1.9057    0.2719 H   0  0  0  0  0  0  0  0  0  0  0  0
   -0.8838   -0.2182   -1.5096 H   0  0  0  0  0  0  0  0  0  0  0  0
   -1.0261   -2.1610   -3.1585 H   0  0  0  0  0  0  0  0  0  0  0  0
   -0.8634   -4.6098   -3.3311 H   0  0  0  0  0  0  0  0  0  0  0  0
    1.2056   -4.7356    0.4093 H   0  0  0  0  0  0  0  0  0  0  0  0
    1.0506   -2.2859    0.5772 H   0  0  0  0  0  0  0  0  0  0  0  0
    0.2108   -6.7675   -0.7717 H   0  0  0  0  0  0  0  0  0  0  0  0
    1.8834  -10.5821   -3.6620 H   0  0  0  0  0  0  0  0  0  0  0  0
    0.1230  -10.7931   -3.8190 H   0  0  0  0  0  0  0  0  0  0  0  0
    3.0461  -11.7589   -5.5917 H   0  0  0  0  0  0  0  0  0  0  0  0
    2.6295  -12.0313   -8.1694 H   0  0  0  0  0  0  0  0  0  0  0  0
  1  2  1  0  0  0  0
  1 29  1  0  0  0  0
  1 30  1  0  0  0  0
  1 31  1  0  0  0  0
  2  3  2  0  0  0  0
  2  4  1  0  0  0  0
  4  5  1  0  0  0  0
  4 32  1  0  0  0  0
  5 10  2  0  0  0  0
  5  6  1  0  0  0  0
  6  7  2  0  0  0  0
  6 33  1  0  0  0  0
  7  8  1  0  0  0  0
  7 34  1  0  0  0  0
  8  9  2  0  0  0  0
  8 11  1  0  0  0  0
  9 10  1  0  0  0  0
  9 35  1  0  0  0  0
 10 36  1  0  0  0  0
 11 12  1  0  0  0  0
 11 37  1  0  0  0  0
 12 13  1  0  0  0  0
 12 14  2  0  0  0  0
 14 15  1  0  0  0  0
 14 17  1  0  0  0  0
 15 16  3  0  0  0  0
 17 18  2  0  0  0  0
 17 19  1  0  0  0  0
 19 20  1  0  0  0  0
 19 38  1  0  0  0  0
 19 39  1  0  0  0  0
 20 24  1  0  0  0  0
 20 21  1  0  0  0  0
 21 22  2  0  0  0  0
 21 40  1  0  0  0  0
 22 23  1  0  0  0  0
 22 41  1  0  0  0  0
 23 24  2  0  0  0  0
 23 25  1  0  0  0  0
 25 26  1  0  0  0  0
 25 27  1  0  0  0  0
 25 28  1  0  0  0  0
M  CHG  1  13  -1
M  END
$$$$
ZINC20101720
 OpenBabel01252620473D

 36 37  0  0  1  0  0  0  0  0999 V2000
    1.3646   -0.0925    2.6066 C   0  0  0  0  0  0  0  0  0  0  0  0
    2.6529    0.6885    2.5685 C   0  0  0  0  0  0  0  0  0  0  0  0
    3.2580    0.9116    3.5968 O   0  0  0  0  0  0  0  0  0  0  0  0
    3.1572    1.1617    1.3340 C   0  0  0  0  0  0  0  0  0  0  0  0
    4.3516    1.7719    1.1261 C   0  0  0  0  0  0  0  0  0  0  0  0
    4.4829    2.1042   -0.3097 C   0  0  0  0  0  0  0  0  0  0  0  0
    5.4406    2.6566   -0.8129 O   0  0  0  0  0  0  0  0  0  0  0  0
    3.3842    1.7046   -0.9755 N   0  0  0  0  0  0  0  0  0  0  0  0
    2.4692    1.0863   -0.0091 C   0  0  2  0  0  0  0  0  0  0  0  0
    2.2536    0.0496   -0.3070 H   0  0  0  0  0  0  0  0  0  0  0  0
    1.1684    1.8460    0.0319 C   0  0  0  0  0  0  0  0  0  0  0  0
    1.1758    3.2236    0.1497 C   0  0  0  0  0  0  0  0  0  0  0  0
   -0.0172    3.9204    0.1869 C   0  0  0  0  0  0  0  0  0  0  0  0
   -1.2180    3.2399    0.1066 C   0  0  0  0  0  0  0  0  0  0  0  0
   -1.2253    1.8633   -0.0169 C   0  0  0  0  0  0  0  0  0  0  0  0
   -0.0320    1.1658   -0.0487 C   0  0  0  0  0  0  0  0  0  0  0  0
   -2.5108    1.1354   -0.1094 N   0  0  0  0  0  4  0  0  0  0  0  0
   -2.5173   -0.0781   -0.2136 O   0  0  0  0  0  0  0  0  0  0  0  0
   -3.5621    1.7499   -0.0814 O   0  5  0  0  0  0  0  0  0  0  0  0
    3.1438    1.8591   -2.4123 C   0  0  0  0  0  0  0  0  0  0  0  0
    2.4470    3.1962   -2.6719 C   0  0  0  0  0  0  0  0  0  0  0  0
    2.1997    3.3552   -4.1500 C   0  0  0  0  0  0  0  0  0  0  0  0
    2.5454    2.4880   -4.9170 O   0  0  0  0  0  0  0  0  0  0  0  0
    1.5955    4.4602   -4.6144 O   0  0  0  0  0  1  0  0  0  0  0  0
    5.2741    2.0338    2.0788 O   0  5  0  0  0  0  0  0  0  0  0  0
    0.9660   -0.1923    1.5862 H   0  0  0  0  0  0  0  0  0  0  0  0
    0.6336    0.4365    3.2357 H   0  0  0  0  0  0  0  0  0  0  0  0
    1.5539   -1.0918    3.0257 H   0  0  0  0  0  0  0  0  0  0  0  0
    2.1139    3.7551    0.2124 H   0  0  0  0  0  0  0  0  0  0  0  0
   -0.0114    4.9965    0.2789 H   0  0  0  0  0  0  0  0  0  0  0  0
   -2.1502    3.7844    0.1360 H   0  0  0  0  0  0  0  0  0  0  0  0
   -0.0378    0.0898   -0.1411 H   0  0  0  0  0  0  0  0  0  0  0  0
    4.1036    1.8354   -2.9493 H   0  0  0  0  0  0  0  0  0  0  0  0
    2.5046    1.0374   -2.7676 H   0  0  0  0  0  0  0  0  0  0  0  0
    1.4873    3.2198   -2.1349 H   0  0  0  0  0  0  0  0  0  0  0  0
    3.0862    4.0179   -2.3166 H   0  0  0  0  0  0  0  0  0  0  0  0
  1  2  1  0  0  0  0
  1 26  1  0  0  0  0
  1 27  1  0  0  0  0
  1 28  1  0  0  0  0
  2  3  2  0  0  0  0
  2  4  1  0  0  0  0
  4  9  1  0  0  0  0
  4  5  2  0  0  0  0
  5  6  1  0  0  0  0
  5 25  1  0  0  0  0
  6  7  2  0  0  0  0
  6  8  1  0  0  0  0
  8  9  1  0  0  0  0
  8 20  1  0  0  0  0
  9 10  1  6  0  0  0
  9 11  1  0  0  0  0
 11 16  2  0  0  0  0
 11 12  1  0  0  0  0
 12 13  2  0  0  0  0
 12 29  1  0  0  0  0
 13 14  1  0  0  0  0
 13 30  1  0  0  0  0
 14 15  2  0  0  0  0
 14 31  1  0  0  0  0
 15 16  1  0  0  0  0
 15 17  1  0  0  0  0
 16 32  1  0  0  0  0
 17 18  2  0  0  0  0
 17 19  1  0  0  0  0
 20 21  1  0  0  0  0
 20 33  1  0  0  0  0
 20 34  1  0  0  0  0
 21 22  1  0  0  0  0
 21 35  1  0  0  0  0
 21 36  1  0  0  0  0
 22 23  2  0  0  0  0
 22 24  1  0  0  0  0
M  CHG  2  19  -1  25  -1
M  END
$$$$
ZINC16909851
 OpenBabel01252620473D

 43 46  0  0  0  0  0  0  0  0999 V2000
    1.3803    3.9132    2.4282 C   0  0  0  0  0  0  0  0  0  0  0  0
    1.4835    3.0637    3.5283 C   0  0  0  0  0  0  0  0  0  0  0  0
    1.4726    1.7118    3.3726 C   0  0  0  0  0  0  0  0  0  0  0  0
    1.3557    1.1608    2.0845 C   0  0  0  0  0  0  0  0  0  0  0  0
    1.3406   -0.2296    1.8866 C   0  0  0  0  0  0  0  0  0  0  0  0
    1.2240   -0.7316    0.6100 C   0  0  0  0  0  0  0  0  0  0  0  0
    1.1212    0.1287   -0.4894 C   0  0  0  0  0  0  0  0  0  0  0  0
    1.1334    1.4778   -0.3242 C   0  0  0  0  0  0  0  0  0  0  0  0
    1.2506    2.0248    0.9657 C   0  0  0  0  0  0  0  0  0  0  0  0
    1.2652    3.4156    1.1667 C   0  0  0  0  0  0  0  0  0  0  0  0
    1.2087   -2.1178    0.4091 N   0  0  0  0  0  0  0  0  0  0  0  0
    0.0531   -2.7605    0.4268 C   0  0  0  0  0  0  0  0  0  0  0  0
   -0.9994   -2.1784    0.6134 O   0  0  0  0  0  0  0  0  0  0  0  0
    0.1037   -4.2189    0.2038 C   0  0  0  0  0  0  0  0  0  0  0  0
   -0.9076   -5.1239    0.1641 C   0  0  0  0  0  0  0  0  0  0  0  0
   -2.3024   -4.6674    0.1900 C   0  0  0  0  0  0  0  0  0  0  0  0
   -2.6918   -3.5493   -0.5568 C   0  0  0  0  0  0  0  0  0  0  0  0
   -4.0028   -3.1270   -0.5273 C   0  0  0  0  0  0  0  0  0  0  0  0
   -4.9386   -3.8038    0.2383 C   0  0  0  0  0  0  0  0  0  0  0  0
   -4.5688   -4.9094    0.9802 C   0  0  0  0  0  0  0  0  0  0  0  0
   -3.2565   -5.3531    0.9597 C   0  0  0  0  0  0  0  0  0  0  0  0
   -2.8935   -6.4420    1.6840 O   0  0  0  0  0  0  0  0  0  0  0  0
   -3.9181   -7.0878    2.4424 C   0  0  0  0  0  0  0  0  0  0  0  0
   -3.3327   -8.2670    3.1757 C   0  0  0  0  0  0  0  0  0  0  0  0
   -2.1585   -8.5277    3.0608 O   0  0  0  0  0  0  0  0  0  0  0  0
    1.8630   -4.4667    0.0062 S   0  0  0  0  0  0  0  0  0  0  0  0
    2.3732   -2.7674    0.2074 C   0  0  0  0  0  0  0  0  0  0  0  0
    3.9570   -2.1195    0.1558 S   0  0  0  0  0  0  0  0  0  0  0  0
    1.3915    4.9826    2.5792 H   0  0  0  0  0  0  0  0  0  0  0  0
    1.5731    3.4845    4.5189 H   0  0  0  0  0  0  0  0  0  0  0  0
    1.5531    1.0656    4.2341 H   0  0  0  0  0  0  0  0  0  0  0  0
    1.4195   -0.8999    2.7297 H   0  0  0  0  0  0  0  0  0  0  0  0
    1.0312   -0.2852   -1.4828 H   0  0  0  0  0  0  0  0  0  0  0  0
    1.0576    2.1285   -1.1827 H   0  0  0  0  0  0  0  0  0  0  0  0
    1.1861    4.0864    0.3240 H   0  0  0  0  0  0  0  0  0  0  0  0
   -0.6858   -6.1797    0.1136 H   0  0  0  0  0  0  0  0  0  0  0  0
   -1.9659   -3.0188   -1.1553 H   0  0  0  0  0  0  0  0  0  0  0  0
   -4.3027   -2.2645   -1.1039 H   0  0  0  0  0  0  0  0  0  0  0  0
   -5.9640   -3.4652    0.2551 H   0  0  0  0  0  0  0  0  0  0  0  0
   -5.3050   -5.4310    1.5738 H   0  0  0  0  0  0  0  0  0  0  0  0
   -4.3362   -6.3837    3.1618 H   0  0  0  0  0  0  0  0  0  0  0  0
   -4.7050   -7.4316    1.7711 H   0  0  0  0  0  0  0  0  0  0  0  0
   -4.1157   -9.0278    3.9567 O   0  0  0  0  0  1  0  0  0  0  0  0
  1 10  2  0  0  0  0
  1  2  1  0  0  0  0
  1 29  1  0  0  0  0
  2  3  2  0  0  0  0
  2 30  1  0  0  0  0
  3  4  1  0  0  0  0
  3 31  1  0  0  0  0
  4  9  2  0  0  0  0
  4  5  1  0  0  0  0
  5  6  2  0  0  0  0
  5 32  1  0  0  0  0
  6  7  1  0  0  0  0
  6 11  1  0  0  0  0
  7  8  2  0  0  0  0
  7 33  1  0  0  0  0
  8  9  1  0  0  0  0
  8 34  1  0  0  0  0
  9 10  1  0  0  0  0
 10 35  1  0  0  0  0
 11 27  1  0  0  0  0
 11 12  1  0  0  0  0
 12 13  2  0  0  0  0
 12 14  1  0  0  0  0
 14 15  2  0  0  0  0
 14 26  1  0  0  0  0
 15 16  1  0  0  0  0
 15 36  1  0  0  0  0
 16 21  2  0  0  0  0
 16 17  1  0  0  0  0
 17 18  2  0  0  0  0
 17 37  1  0  0  0  0
 18 19  1  0  0  0  0
 18 38  1  0  0  0  0
 19 20  2  0  0  0  0
 19 39  1  0  0  0  0
 20 21  1  0  0  0  0
 20 40  1  0  0  0  0
 21 22  1  0  0  0  0
 22 23  1  0  0  0  0
 23 24  1  0  0  0  0
 23 41  1  0  0  0  0
 23 42  1  0  0  0  0
 24 25  2  0  0  0  0
 24 43  1  0  0  0  0
 26 27  1  0  0  0  0
 27 28  2  0  0  0  0
M  END
$$$$
ZINC46862202
 OpenBabel01252620473D

 59 62  0  0  0  0  0  0  0  0999 V2000
    0.5579    1.7307   -1.3756 C   0  0  0  0  0  0  0  0  0  0  0  0
    1.7472    2.3573   -1.7007 C   0  0  0  0  0  0  0  0  0  0  0  0
    2.9189    1.6293   -1.7616 C   0  0  0  0  0  0  0  0  0  0  0  0
    2.9022    0.2654   -1.4954 C   0  0  0  0  0  0  0  0  0  0  0  0
    1.7053   -0.3608   -1.1686 C   0  0  0  0  0  0  0  0  0  0  0  0
    0.5374    0.3736   -1.1101 C   0  0  0  0  0  0  0  0  0  0  0  0
    4.3948   -0.6678   -1.5725 S   0  0  0  0  0  0  0  0  0  0  0  0
    3.8784   -2.3565   -1.1574 C   0  0  0  0  0  0  0  0  0  0  0  0
    5.0950   -3.2839   -1.1881 C   0  0  0  0  0  0  0  0  0  0  0  0
    4.6769   -4.6514   -0.8520 N   0  0  0  0  0  0  0  0  0  0  0  0
    3.7856   -5.1980   -1.8839 C   0  0  0  0  0  0  0  0  0  0  0  0
    3.2300   -6.5460   -1.4123 C   0  0  0  0  0  0  0  0  0  0  0  0
    4.3589   -7.4132   -1.0427 N   0  0  0  0  0  0  0  0  0  0  0  0
    5.3703   -6.8819   -0.1164 C   0  0  0  0  0  0  0  0  0  0  0  0
    5.8417   -5.5207   -0.6390 C   0  0  0  0  0  0  0  0  0  0  0  0
    4.4637   -8.6618   -1.5392 C   0  0  0  0  0  0  0  0  0  0  0  0
    3.5835   -9.1099   -2.2478 O   0  0  0  0  0  0  0  0  0  0  0  0
    5.6490   -9.4865   -1.2220 C   0  0  0  0  0  0  0  0  0  0  0  0
    6.0782   -9.6179    0.0996 C   0  0  0  0  0  0  0  0  0  0  0  0
    7.1848  -10.3893    0.3889 C   0  0  0  0  0  0  0  0  0  0  0  0
    7.8690  -11.0315   -0.6278 C   0  0  0  0  0  0  0  0  0  0  0  0
    7.4491  -10.9051   -1.9401 C   0  0  0  0  0  0  0  0  0  0  0  0
    6.3404  -10.1417   -2.2422 C   0  0  0  0  0  0  0  0  0  0  0  0
    9.2817  -12.0144   -0.2498 S   0  0  0  0  0  0  0  0  0  0  0  0
   10.0680  -12.0672   -1.4323 O   0  0  0  0  0  0  0  0  0  0  0  0
    9.7939  -11.5315    0.9846 O   0  0  0  0  0  0  0  0  0  0  0  0
    8.7450  -13.5556    0.0310 N   0  0  0  0  0  2  0  0  0  0  0  0
    9.6563  -14.5647    0.3580 C   0  0  0  0  0  0  0  0  0  0  0  0
   11.0107  -14.2750    0.4533 C   0  0  0  0  0  0  0  0  0  0  0  0
   11.9085  -15.2738    0.7770 C   0  0  0  0  0  0  0  0  0  0  0  0
   11.4606  -16.5618    1.0057 C   0  0  0  0  0  0  0  0  0  0  0  0
   10.1126  -16.8556    0.9115 C   0  0  0  0  0  0  0  0  0  0  0  0
    9.2074  -15.8597    0.5941 C   0  0  0  0  0  0  0  0  0  0  0  0
    7.8897  -16.1453    0.5079 F   0  0  0  0  0  0  0  0  0  0  0  0
   -0.3564    2.3034   -1.3246 H   0  0  0  0  0  0  0  0  0  0  0  0
    1.7594    3.4173   -1.9074 H   0  0  0  0  0  0  0  0  0  0  0  0
    3.8471    2.1191   -2.0162 H   0  0  0  0  0  0  0  0  0  0  0  0
    1.6886   -1.4205   -0.9611 H   0  0  0  0  0  0  0  0  0  0  0  0
   -0.3932   -0.1124   -0.8566 H   0  0  0  0  0  0  0  0  0  0  0  0
    3.4385   -2.3672   -0.1602 H   0  0  0  0  0  0  0  0  0  0  0  0
    3.1414   -2.6999   -1.8834 H   0  0  0  0  0  0  0  0  0  0  0  0
    5.5349   -3.2732   -2.1853 H   0  0  0  0  0  0  0  0  0  0  0  0
    5.8320   -2.9405   -0.4622 H   0  0  0  0  0  0  0  0  0  0  0  0
    2.9619   -4.5056   -2.0570 H   0  0  0  0  0  0  0  0  0  0  0  0
    4.3439   -5.3385   -2.8095 H   0  0  0  0  0  0  0  0  0  0  0  0
    2.5862   -6.3938   -0.5460 H   0  0  0  0  0  0  0  0  0  0  0  0
    2.6608   -7.0095   -2.2181 H   0  0  0  0  0  0  0  0  0  0  0  0
    4.9323   -6.7620    0.8745 H   0  0  0  0  0  0  0  0  0  0  0  0
    6.2162   -7.5675   -0.0653 H   0  0  0  0  0  0  0  0  0  0  0  0
    6.3714   -5.6567   -1.5819 H   0  0  0  0  0  0  0  0  0  0  0  0
    6.5091   -5.0622    0.0908 H   0  0  0  0  0  0  0  0  0  0  0  0
    5.5454   -9.1165    0.8940 H   0  0  0  0  0  0  0  0  0  0  0  0
    7.5179  -10.4918    1.4111 H   0  0  0  0  0  0  0  0  0  0  0  0
    7.9879  -11.4087   -2.7291 H   0  0  0  0  0  0  0  0  0  0  0  0
    6.0108  -10.0477   -3.2664 H   0  0  0  0  0  0  0  0  0  0  0  0
   11.3621  -13.2696    0.2742 H   0  0  0  0  0  0  0  0  0  0  0  0
   12.9621  -15.0483    0.8511 H   0  0  0  0  0  0  0  0  0  0  0  0
   12.1653  -17.3403    1.2582 H   0  0  0  0  0  0  0  0  0  0  0  0
    9.7661  -17.8628    1.0905 H   0  0  0  0  0  0  0  0  0  0  0  0
  1  6  2  0  0  0  0
  1  2  1  0  0  0  0
  1 35  1  0  0  0  0
  2  3  2  0  0  0  0
  2 36  1  0  0  0  0
  3  4  1  0  0  0  0
  3 37  1  0  0  0  0
  4  5  2  0  0  0  0
  4  7  1  0  0  0  0
  5  6  1  0  0  0  0
  5 38  1  0  0  0  0
  6 39  1  0  0  0  0
  7  8  1  0  0  0  0
  8  9  1  0  0  0  0
  8 40  1  0  0  0  0
  8 41  1  0  0  0  0
  9 10  1  0  0  0  0
  9 42  1  0  0  0  0
  9 43  1  0  0  0  0
 10 15  1  0  0  0  0
 10 11  1  0  0  0  0
 11 12  1  0  0  0  0
 11 44  1  0  0  0  0
 11 45  1  0  0  0  0
 12 13  1  0  0  0  0
 12 46  1  0  0  0  0
 12 47  1  0  0  0  0
 13 14  1  0  0  0  0
 13 16  1  0  0  0  0
 14 15  1  0  0  0  0
 14 48  1  0  0  0  0
 14 49  1  0  0  0  0
 15 50  1  0  0  0  0
 15 51  1  0  0  0  0
 16 17  2  0  0  0  0
 16 18  1  0  0  0  0
 18 23  2  0  0  0  0
 18 19  1  0  0  0  0
 19 20  2  0  0  0  0
 19 52  1  0  0  0  0
 20 21  1  0  0  0  0
 20 53  1  0  0  0  0
 21 22  2  0  0  0  0
 21 24  1  0  0  0  0
 22 23  1  0  0  0  0
 22 54  1  0  0  0  0
 23 55  1  0  0  0  0
 24 25  2  0  0  0  0
 24 26  2  0  0  0  0
 24 27  1  0  0  0  0
 27 28  1  0  0  0  0
 28 33  2  0  0  0  0
 28 29  1  0  0  0  0
 29 30  2  0  0  0  0
 29 56  1  0  0  0  0
 30 31  1  0  0  0  0
 30 57  1  0  0  0  0
 31 32  2  0  0  0  0
 31 58  1  0  0  0  0
 32 33  1  0  0  0  0
 32 59  1  0  0  0  0
 33 34  1  0  0  0  0
M  END
$$$$
ZINC22628661
 OpenBabel01252620473D

 43 45  0  0  0  0  0  0  0  0999 V2000
    2.3380   -0.0125   -0.0207 C   0  0  0  0  0  0  0  0  0  0  0  0
    1.1476   -0.6807   -0.0125 C   0  0  0  0  0  0  0  0  0  0  0  0
    0.0021   -0.0041    0.0020 N   0  0  0  0  0  0  0  0  0  0  0  0
   -0.0158    1.3150    0.0093 C   0  0  0  0  0  0  0  0  0  0  0  0
    1.1404    2.0345    0.0021 N   0  0  0  0  0  0  0  0  0  0  0  0
    2.3286    1.3933   -0.0131 C   0  0  0  0  0  0  0  0  0  0  0  0
    3.3742    2.0220   -0.0205 O   0  5  0  0  0  0  0  0  0  0  0  0
   -1.5617    2.1602    0.0287 S   0  0  0  0  0  0  0  0  0  0  0  0
   -2.6927    0.7469    0.0234 C   0  0  0  0  0  0  0  0  0  0  0  0
   -4.1158    1.2423    0.0385 C   0  0  0  0  0  0  0  0  0  0  0  0
   -4.3431    2.4336    0.0517 O   0  0  0  0  0  0  0  0  0  0  0  0
   -5.1360    0.3616    0.0375 N   0  0  0  0  0  0  0  0  0  0  0  0
   -4.8850   -1.0882    0.0155 C   0  0  0  0  0  0  0  0  0  0  0  0
   -5.7055   -1.7336    1.1438 C   0  0  0  0  0  0  0  0  0  0  0  0
   -7.0700   -1.3242    1.0246 O   0  0  0  0  0  0  0  0  0  0  0  0
   -7.2739    0.0830    1.1732 C   0  0  0  0  0  0  0  0  0  0  0  0
   -6.5337    0.8214    0.0522 C   0  0  0  0  0  0  0  0  0  0  0  0
    1.1309   -2.1876   -0.0199 C   0  0  0  0  0  0  0  0  0  0  0  0
    1.0148   -2.6955    1.3942 C   0  0  0  0  0  0  0  0  0  0  0  0
    0.9517   -1.9111    2.3171 O   0  0  0  0  0  0  0  0  0  0  0  0
    0.9809   -4.0215    1.6333 N   0  0  0  0  0  0  0  0  0  0  0  0
    0.8679   -4.5153    3.0079 C   0  0  0  0  0  0  0  0  0  0  0  0
    1.7621   -5.6890    3.4127 C   0  0  0  0  0  0  0  0  0  0  0  0
    0.2609   -5.9048    3.2117 C   0  0  0  0  0  0  0  0  0  0  0  0
    3.1978   -0.5229   -0.0319 H   0  0  0  0  0  0  0  0  0  0  0  0
   -2.5104    0.1281    0.9144 H   0  0  0  0  0  0  0  0  0  0  0  0
   -2.5234    0.1452   -0.8818 H   0  0  0  0  0  0  0  0  0  0  0  0
   -5.1917   -1.4987   -0.9578 H   0  0  0  0  0  0  0  0  0  0  0  0
   -3.8127   -1.2772    0.1717 H   0  0  0  0  0  0  0  0  0  0  0  0
   -5.6400   -2.8288    1.0644 H   0  0  0  0  0  0  0  0  0  0  0  0
   -5.3068   -1.4120    2.1172 H   0  0  0  0  0  0  0  0  0  0  0  0
   -8.3495    0.3059    1.1143 H   0  0  0  0  0  0  0  0  0  0  0  0
   -6.8849    0.4088    2.1492 H   0  0  0  0  0  0  0  0  0  0  0  0
   -6.5610    1.9060    0.2338 H   0  0  0  0  0  0  0  0  0  0  0  0
   -7.0027    0.6002   -0.9179 H   0  0  0  0  0  0  0  0  0  0  0  0
    2.0626   -2.5625   -0.4688 H   0  0  0  0  0  0  0  0  0  0  0  0
    0.2718   -2.5419   -0.6085 H   0  0  0  0  0  0  0  0  0  0  0  0
    1.0382   -4.7330    0.7963 H   0  0  0  0  0  0  0  0  0  0  0  0
    0.6716   -3.5002    3.3836 H   0  0  0  0  0  0  0  0  0  0  0  0
    2.5322   -5.8457    2.6430 H   0  0  0  0  0  0  0  0  0  0  0  0
    2.2458   -5.4665    4.3753 H   0  0  0  0  0  0  0  0  0  0  0  0
   -0.4965   -5.8608    4.0082 H   0  0  0  0  0  0  0  0  0  0  0  0
   -0.2102   -6.2400    2.2759 H   0  0  0  0  0  0  0  0  0  0  0  0
  1  6  2  0  0  0  0
  1 25  1  0  0  0  0
  1  2  1  0  0  0  0
  2  3  2  0  0  0  0
  2 18  1  0  0  0  0
  3  4  1  0  0  0  0
  4  8  1  0  0  0  0
  4  5  2  0  0  0  0
  5  6  1  0  0  0  0
  6  7  1  0  0  0  0
  8  9  1  0  0  0  0
  9 10  1  0  0  0  0
  9 26  1  0  0  0  0
  9 27  1  0  0  0  0
 10 11  2  0  0  0  0
 10 12  1  0  0  0  0
 12 17  1  0  0  0  0
 12 13  1  0  0  0  0
 13 14  1  0  0  0  0
 13 28  1  0  0  0  0
 13 29  1  0  0  0  0
 14 15  1  0  0  0  0
 14 30  1  0  0  0  0
 14 31  1  0  0  0  0
 15 16  1  0  0  0  0
 16 17  1  0  0  0  0
 16 32  1  0  0  0  0
 16 33  1  0  0  0  0
 17 34  1  0  0  0  0
 17 35  1  0  0  0  0
 18 19  1  0  0  0  0
 18 36  1  0  0  0  0
 18 37  1  0  0  0  0
 19 20  2  0  0  0  0
 19 21  1  0  0  0  0
 21 22  1  0  0  0  0
 21 38  1  0  0  0  0
 22 24  1  0  0  0  0
 22 23  1  0  0  0  0
 22 39  1  0  0  0  0
 23 24  1  0  0  0  0
 23 40  1  0  0  0  0
 23 41  1  0  0  0  0
 24 42  1  0  0  0  0
 24 43  1  0  0  0  0
M  CHG  1   7  -1
M  END
$$$$
ZINC65137474
 OpenBabel01252620473D

 56 59  0  0  0  0  0  0  0  0999 V2000
    1.0932   -2.3316    1.6614 C   0  0  0  0  0  0  0  0  0  0  0  0
    0.5957   -3.5631    2.3734 C   0  0  0  0  0  0  0  0  0  0  0  0
    0.5873   -4.7817    1.7230 C   0  0  0  0  0  0  0  0  0  0  0  0
    0.1311   -5.9128    2.3763 C   0  0  0  0  0  0  0  0  0  0  0  0
   -0.3185   -5.8268    3.6824 C   0  0  0  0  0  0  0  0  0  0  0  0
   -0.3128   -4.6111    4.3373 C   0  0  0  0  0  0  0  0  0  0  0  0
    0.1505   -3.4749    3.6859 C   0  0  0  0  0  0  0  0  0  0  0  0
    0.1632   -2.2444    4.3482 N   0  0  0  0  0  2  0  0  0  0  0  0
   -0.3680   -2.1410    5.9133 S   0  0  0  0  0  0  0  0  0  0  0  0
   -1.7602   -2.4249    5.8892 O   0  0  0  0  0  0  0  0  0  0  0  0
    0.5480   -2.8868    6.7032 O   0  0  0  0  0  0  0  0  0  0  0  0
   -0.2057   -0.4578    6.4084 C   0  0  0  0  0  0  0  0  0  0  0  0
    0.9212    0.1223    7.0052 C   0  0  0  0  0  0  0  0  0  0  0  0
    0.6308    1.4399    7.2267 C   0  0  0  0  0  0  0  0  0  0  0  0
   -0.6474    1.6689    6.7766 N   0  0  0  0  0  0  0  0  0  0  0  0
   -1.1450    0.5067    6.2748 C   0  0  0  0  0  0  0  0  0  0  0  0
   -1.3537    2.9515    6.8242 C   0  0  0  0  0  0  0  0  0  0  0  0
    1.5251    2.4331    7.8370 C   0  0  0  0  0  0  0  0  0  0  0  0
    1.3056    3.7233    8.0867 N   0  0  0  0  0  0  0  0  0  0  0  0
    2.2148    4.4751    8.6401 C   0  0  0  0  0  0  0  0  0  0  0  0
    3.4423    3.9182    8.9777 C   0  0  0  0  0  0  0  0  0  0  0  0
    3.1927    2.2280    8.4482 S   0  0  0  0  0  0  0  0  0  0  0  0
    4.6126    4.5405    9.5993 C   0  0  0  0  0  0  0  0  0  0  0  0
    4.4662    5.4229   10.4251 O   0  0  0  0  0  0  0  0  0  0  0  0
    5.8521    4.1366    9.2572 N   0  0  0  0  0  0  0  0  0  0  0  0
    6.0502    3.1654    8.1727 C   0  0  0  0  0  0  0  0  0  0  0  0
    7.0403    3.7511    7.1610 C   0  0  0  0  0  0  0  0  0  0  0  0
    8.3261    4.1543    7.8865 C   0  0  0  0  0  0  0  0  0  0  0  0
    8.0098    5.2281    8.9301 C   0  0  0  0  0  0  0  0  0  0  0  0
    7.0311    4.6636    9.9577 C   0  0  0  0  0  0  0  0  0  0  0  0
    1.9384    5.9317    8.9102 C   0  0  0  0  0  0  0  0  0  0  0  0
    0.1220   -7.4427    1.5558 Cl  0  0  0  0  0  0  0  0  0  0  0  0
    2.1655   -2.2253    1.8255 H   0  0  0  0  0  0  0  0  0  0  0  0
    0.8967   -2.4251    0.5933 H   0  0  0  0  0  0  0  0  0  0  0  0
    0.5773   -1.4537    2.0503 H   0  0  0  0  0  0  0  0  0  0  0  0
    0.9369   -4.8515    0.7036 H   0  0  0  0  0  0  0  0  0  0  0  0
   -0.6744   -6.7112    4.1898 H   0  0  0  0  0  0  0  0  0  0  0  0
   -0.6641   -4.5445    5.3564 H   0  0  0  0  0  0  0  0  0  0  0  0
    1.8473   -0.3784    7.2462 H   0  0  0  0  0  0  0  0  0  0  0  0
   -2.1265    0.3753    5.8440 H   0  0  0  0  0  0  0  0  0  0  0  0
   -1.1592    3.5077    5.9071 H   0  0  0  0  0  0  0  0  0  0  0  0
   -2.4247    2.7732    6.9208 H   0  0  0  0  0  0  0  0  0  0  0  0
   -1.0027    3.5281    7.6801 H   0  0  0  0  0  0  0  0  0  0  0  0
    6.4513    2.2379    8.5815 H   0  0  0  0  0  0  0  0  0  0  0  0
    5.0980    2.9684    7.6801 H   0  0  0  0  0  0  0  0  0  0  0  0
    7.2700    3.0034    6.4020 H   0  0  0  0  0  0  0  0  0  0  0  0
    6.5998    4.6282    6.6869 H   0  0  0  0  0  0  0  0  0  0  0  0
    8.7529    3.2818    8.3810 H   0  0  0  0  0  0  0  0  0  0  0  0
    9.0417    4.5487    7.1650 H   0  0  0  0  0  0  0  0  0  0  0  0
    8.9296    5.5315    9.4301 H   0  0  0  0  0  0  0  0  0  0  0  0
    7.5602    6.0912    8.4392 H   0  0  0  0  0  0  0  0  0  0  0  0
    6.7260    5.4549   10.6425 H   0  0  0  0  0  0  0  0  0  0  0  0
    7.5140    3.8611   10.5153 H   0  0  0  0  0  0  0  0  0  0  0  0
    1.5064    6.0412    9.9049 H   0  0  0  0  0  0  0  0  0  0  0  0
    2.8701    6.4947    8.8547 H   0  0  0  0  0  0  0  0  0  0  0  0
    1.2388    6.3128    8.1663 H   0  0  0  0  0  0  0  0  0  0  0  0
  1  2  1  0  0  0  0
  1 33  1  0  0  0  0
  1 34  1  0  0  0  0
  1 35  1  0  0  0  0
  2  7  2  0  0  0  0
  2  3  1  0  0  0  0
  3  4  2  0  0  0  0
  3 36  1  0  0  0  0
  4  5  1  0  0  0  0
  4 32  1  0  0  0  0
  5  6  2  0  0  0  0
  5 37  1  0  0  0  0
  6  7  1  0  0  0  0
  6 38  1  0  0  0  0
  7  8  1  0  0  0  0
  8  9  1  0  0  0  0
  9 10  2  0  0  0  0
  9 11  2  0  0  0  0
  9 12  1  0  0  0  0
 12 16  2  0  0  0  0
 12 13  1  0  0  0  0
 13 14  2  0  0  0  0
 13 39  1  0  0  0  0
 14 15  1  0  0  0  0
 14 18  1  0  0  0  0
 15 16  1  0  0  0  0
 15 17  1  0  0  0  0
 16 40  1  0  0  0  0
 17 41  1  0  0  0  0
 17 42  1  0  0  0  0
 17 43  1  0  0  0  0
 18 22  1  0  0  0  0
 18 19  2  0  0  0  0
 19 20  1  0  0  0  0
 20 21  2  0  0  0  0
 20 31  1  0  0  0  0
 21 22  1  0  0  0  0
 21 23  1  0  0  0  0
 23 24  2  0  0  0  0
 23 25  1  0  0  0  0
 25 30  1  0  0  0  0
 25 26  1  0  0  0  0
 26 27  1  0  0  0  0
 26 44  1  0  0  0  0
 26 45  1  0  0  0  0
 27 28  1  0  0  0  0
 27 46  1  0  0  0  0
 27 47  1  0  0  0  0
 28 29  1  0  0  0  0
 28 48  1  0  0  0  0
 28 49  1  0  0  0  0
 29 30  1  0  0  0  0
 29 50  1  0  0  0  0
 29 51  1  0  0  0  0
 30 52  1  0  0  0  0
 30 53  1  0  0  0  0
 31 54  1  0  0  0  0
 31 55  1  0  0  0  0
 31 56  1  0  0  0  0
M  END
$$$$
ZINC28794342
 OpenBabel01252620473D

 43 44  0  0  0  0  0  0  0  0999 V2000
    4.2371    5.3507    2.8140 C   0  0  0  0  0  0  0  0  0  0  0  0
    3.6237    3.9493    2.7846 C   0  0  0  0  0  0  0  0  0  0  0  0
    2.3485    3.9895    2.0646 N   0  0  0  0  0  0  0  0  0  0  0  0
    1.1197    4.3597    2.7711 C   0  0  0  0  0  0  0  0  0  0  0  0
    0.5294    3.1223    3.4503 C   0  0  0  0  0  0  0  0  0  0  0  0
    2.2960    3.6163    0.4520 S   0  0  0  0  0  0  0  0  0  0  0  0
    3.5995    3.8526   -0.0622 O   0  0  0  0  0  0  0  0  0  0  0  0
    1.1416    4.2555   -0.0754 O   0  0  0  0  0  0  0  0  0  0  0  0
    2.0124    1.8818    0.3276 C   0  0  0  0  0  0  0  0  0  0  0  0
    0.7197    1.3950    0.2724 C   0  0  0  0  0  0  0  0  0  0  0  0
    0.4972    0.0342    0.1744 C   0  0  0  0  0  0  0  0  0  0  0  0
    1.5674   -0.8398    0.1315 C   0  0  0  0  0  0  0  0  0  0  0  0
    2.8600   -0.3530    0.1857 C   0  0  0  0  0  0  0  0  0  0  0  0
    3.0825    1.0079    0.2832 C   0  0  0  0  0  0  0  0  0  0  0  0
    1.2838   -2.5744    0.0072 S   0  0  0  0  0  0  0  0  0  0  0  0
    2.4854   -3.2128    0.4167 O   0  0  0  0  0  0  0  0  0  0  0  0
    0.0344   -2.8277    0.6350 O   0  0  0  0  0  0  0  0  0  0  0  0
    1.0857   -2.9242   -1.5993 N   0  0  0  0  0  2  0  0  0  0  0  0
    2.1378   -2.7166   -2.4941 C   0  0  0  0  0  0  0  0  0  0  0  0
    2.0976   -1.6465   -3.3785 C   0  0  0  0  0  0  0  0  0  0  0  0
    3.1435   -1.4394   -4.2600 C   0  0  0  0  0  0  0  0  0  0  0  0
    4.2249   -2.3044   -4.2684 C   0  0  0  0  0  0  0  0  0  0  0  0
    4.2641   -3.3756   -3.3917 C   0  0  0  0  0  0  0  0  0  0  0  0
    3.2231   -3.5832   -2.5046 C   0  0  0  0  0  0  0  0  0  0  0  0
    5.3201   -4.2182   -3.4023 F   0  0  0  0  0  0  0  0  0  0  0  0
    3.1076   -0.3954   -5.1168 F   0  0  0  0  0  0  0  0  0  0  0  0
    5.1946    5.3206    3.3546 H   0  0  0  0  0  0  0  0  0  0  0  0
    3.5495    6.0413    3.3242 H   0  0  0  0  0  0  0  0  0  0  0  0
    4.4082    5.6977    1.7843 H   0  0  0  0  0  0  0  0  0  0  0  0
    4.3113    3.2587    2.2744 H   0  0  0  0  0  0  0  0  0  0  0  0
    3.4527    3.6022    3.8143 H   0  0  0  0  0  0  0  0  0  0  0  0
    1.3490    5.1210    3.5313 H   0  0  0  0  0  0  0  0  0  0  0  0
    0.3921    4.7661    2.0531 H   0  0  0  0  0  0  0  0  0  0  0  0
   -0.3933    3.4003    3.9808 H   0  0  0  0  0  0  0  0  0  0  0  0
    1.2570    2.7160    4.1683 H   0  0  0  0  0  0  0  0  0  0  0  0
    0.3001    2.3611    2.6901 H   0  0  0  0  0  0  0  0  0  0  0  0
   -0.1162    2.0781    0.3015 H   0  0  0  0  0  0  0  0  0  0  0  0
   -0.5127   -0.3462    0.1317 H   0  0  0  0  0  0  0  0  0  0  0  0
    3.6961   -1.0358    0.1521 H   0  0  0  0  0  0  0  0  0  0  0  0
    4.0924    1.3882    0.3259 H   0  0  0  0  0  0  0  0  0  0  0  0
    1.2524   -0.9742   -3.3754 H   0  0  0  0  0  0  0  0  0  0  0  0
    5.0386   -2.1436   -4.9601 H   0  0  0  0  0  0  0  0  0  0  0  0
    3.2545   -4.4183   -1.8205 H   0  0  0  0  0  0  0  0  0  0  0  0
  1  2  1  0  0  0  0
  1 27  1  0  0  0  0
  1 28  1  0  0  0  0
  1 29  1  0  0  0  0
  2  3  1  0  0  0  0
  2 30  1  0  0  0  0
  2 31  1  0  0  0  0
  3  4  1  0  0  0  0
  3  6  1  0  0  0  0
  4  5  1  0  0  0  0
  4 32  1  0  0  0  0
  4 33  1  0  0  0  0
  5 34  1  0  0  0  0
  5 35  1  0  0  0  0
  5 36  1  0  0  0  0
  6  7  2  0  0  0  0
  6  8  2  0  0  0  0
  6  9  1  0  0  0  0
  9 14  2  0  0  0  0
  9 10  1  0  0  0  0
 10 11  2  0  0  0  0
 10 37  1  0  0  0  0
 11 12  1  0  0  0  0
 11 38  1  0  0  0  0
 12 13  2  0  0  0  0
 12 15  1  0  0  0  0
 13 14  1  0  0  0  0
 13 39  1  0  0  0  0
 14 40  1  0  0  0  0
 15 16  2  0  0  0  0
 15 17  2  0  0  0  0
 15 18  1  0  0  0  0
 18 19  1  0  0  0  0
 19 24  2  0  0  0  0
 19 20  1  0  0  0  0
 20 21  2  0  0  0  0
 20 41  1  0  0  0  0
 21 22  1  0  0  0  0
 21 26  1  0  0  0  0
 22 23  2  0  0  0  0
 22 42  1  0  0  0  0
 23 24  1  0  0  0  0
 23 25  1  0  0  0  0
 24 43  1  0  0  0  0
M  END
$$$$
ZINC16932841
 OpenBabel01252620473D

 35 37  0  0  0  0  0  0  0  0999 V2000
    5.2744    0.6706   -2.8705 C   0  0  0  0  0  0  0  0  0  0  0  0
    3.9900    1.0339   -2.5337 C   0  0  0  0  0  0  0  0  0  0  0  0
    3.4515    0.6403   -1.3130 C   0  0  0  0  0  0  0  0  0  0  0  0
    4.2098   -0.1168   -0.4260 C   0  0  0  0  0  0  0  0  0  0  0  0
    5.4931   -0.4884   -0.7582 C   0  0  0  0  0  0  0  0  0  0  0  0
    6.0377   -0.0948   -1.9840 C   0  0  0  0  0  0  0  0  0  0  0  0
    7.4140   -0.4864   -2.3414 C   0  0  0  0  0  0  0  0  0  0  0  0
    7.8857   -0.1438   -3.4074 O   0  0  0  0  0  0  0  0  0  0  0  0
    2.1482    1.0112   -0.9746 N   0  0  0  0  0  0  0  0  0  0  0  0
    1.1427    0.2234   -1.3167 C   0  0  0  0  0  0  0  0  0  0  0  0
    1.3233   -0.8186   -1.9192 O   0  0  0  0  0  0  0  0  0  0  0  0
   -0.2098    0.6713   -0.9307 C   0  0  0  0  0  0  0  0  0  0  0  0
   -1.4120    0.0774   -1.1441 C   0  0  0  0  0  0  0  0  0  0  0  0
   -2.6518    0.7913   -0.8160 C   0  0  0  0  0  0  0  0  0  0  0  0
   -2.6414    2.1811   -0.6487 C   0  0  0  0  0  0  0  0  0  0  0  0
   -3.8092    2.8438   -0.3408 C   0  0  0  0  0  0  0  0  0  0  0  0
   -4.9949    2.1416   -0.1961 C   0  0  0  0  0  0  0  0  0  0  0  0
   -5.0202    0.7695   -0.3579 C   0  0  0  0  0  0  0  0  0  0  0  0
   -3.8576    0.0851   -0.6734 C   0  0  0  0  0  0  0  0  0  0  0  0
   -3.7974    4.3134   -0.1640 N   0  0  0  0  0  4  0  0  0  0  0  0
   -2.7569    4.9338   -0.2909 O   0  0  0  0  0  0  0  0  0  0  0  0
   -4.8282    4.9024    0.1082 O   0  5  0  0  0  0  0  0  0  0  0  0
    0.1701    2.2104   -0.1046 S   0  0  0  0  0  0  0  0  0  0  0  0
    1.9437    2.1648   -0.3067 C   0  0  0  0  0  0  0  0  0  0  0  0
    3.1036    3.3086    0.2200 S   0  0  0  0  0  0  0  0  0  0  0  0
    5.6920    0.9768   -3.8183 H   0  0  0  0  0  0  0  0  0  0  0  0
    3.3998    1.6255   -3.2179 H   0  0  0  0  0  0  0  0  0  0  0  0
    3.7899   -0.4168    0.5227 H   0  0  0  0  0  0  0  0  0  0  0  0
    6.0799   -1.0797   -0.0708 H   0  0  0  0  0  0  0  0  0  0  0  0
   -1.4560   -0.9203   -1.5552 H   0  0  0  0  0  0  0  0  0  0  0  0
   -1.7198    2.7327   -0.7612 H   0  0  0  0  0  0  0  0  0  0  0  0
   -5.9053    2.6701    0.0450 H   0  0  0  0  0  0  0  0  0  0  0  0
   -5.9488    0.2302   -0.2429 H   0  0  0  0  0  0  0  0  0  0  0  0
    8.1483   -1.2242   -1.4857 O   0  0  0  0  0  1  0  0  0  0  0  0
   -3.8827   -1.2618   -0.8385 O   0  5  0  0  0  0  0  0  0  0  0  0
  1  6  2  0  0  0  0
  1  2  1  0  0  0  0
  1 26  1  0  0  0  0
  2  3  2  0  0  0  0
  2 27  1  0  0  0  0
  3  4  1  0  0  0  0
  3  9  1  0  0  0  0
  4  5  2  0  0  0  0
  4 28  1  0  0  0  0
  5  6  1  0  0  0  0
  5 29  1  0  0  0  0
  6  7  1  0  0  0  0
  7  8  2  0  0  0  0
  7 34  1  0  0  0  0
  9 24  1  0  0  0  0
  9 10  1  0  0  0  0
 10 11  2  0  0  0  0
 10 12  1  0  0  0  0
 12 13  2  0  0  0  0
 12 23  1  0  0  0  0
 13 14  1  0  0  0  0
 13 30  1  0  0  0  0
 14 19  2  0  0  0  0
 14 15  1  0  0  0  0
 15 16  2  0  0  0  0
 15 31  1  0  0  0  0
 16 17  1  0  0  0  0
 16 20  1  0  0  0  0
 17 18  2  0  0  0  0
 17 32  1  0  0  0  0
 18 19  1  0  0  0  0
 18 33  1  0  0  0  0
 19 35  1  0  0  0  0
 20 21  2  0  0  0  0
 20 22  1  0  0  0  0
 23 24  1  0  0  0  0
 24 25  2  0  0  0  0
M  CHG  2  22  -1  35  -1
M  END
$$$$
ZINC33957407
 OpenBabel01252620473D

 37 39  0  0  1  0  0  0  0  0999 V2000
   -0.0043    1.3435    0.7102 C   0  0  0  0  0  0  0  0  0  0  0  0
    0.0041   -0.0679    0.4868 O   0  0  0  0  0  0  0  0  0  0  0  0
   -1.2747   -0.6173    0.2258 N   0  0  0  0  0  0  0  0  0  0  0  0
   -1.4021   -1.8950    0.0053 C   0  0  0  0  0  0  0  0  0  0  0  0
   -0.2001   -2.7467   -0.1224 C   0  0  0  0  0  0  0  0  0  0  0  0
    1.0491   -2.1859   -0.1324 C   0  0  0  0  0  0  0  0  0  0  0  0
    2.0685   -3.6447   -0.3024 S   0  0  0  0  0  0  0  0  0  0  0  0
    0.7436   -4.8434   -0.3429 C   0  0  0  0  0  0  0  0  0  0  0  0
   -0.3187   -4.0699   -0.2236 N   0  0  0  0  0  0  0  0  0  0  0  0
    0.8137   -6.2212   -0.4629 N   0  0  0  0  0  0  0  0  0  0  0  0
   -2.7516   -2.4947   -0.1177 C   0  0  0  0  0  0  0  0  0  0  0  0
   -2.8705   -3.6863   -0.3234 O   0  0  0  0  0  0  0  0  0  0  0  0
   -3.8472   -1.7184   -0.0013 N   0  0  0  0  0  0  0  0  0  0  0  0
   -5.1813   -2.3112   -0.1228 C   0  0  2  0  0  0  0  0  0  0  0  0
   -5.1805   -3.2256   -0.7162 H   0  0  0  0  0  0  0  0  0  0  0  0
   -6.2434   -1.3149   -0.5572 C   0  0  2  0  0  0  0  0  0  0  0  0
   -5.9356   -0.2696   -0.5837 H   0  0  0  0  0  0  0  0  0  0  0  0
   -6.9305   -1.7810    0.6844 N   0  0  0  0  0  0  0  0  0  0  0  0
   -5.8914   -2.4611    1.2042 C   0  0  0  0  0  0  0  0  0  0  0  0
   -5.6337   -2.9727    2.2733 O   0  0  0  0  0  0  0  0  0  0  0  0
   -8.2989   -1.6192    0.9867 C   0  0  0  0  0  0  0  0  0  0  0  0
   -9.1738   -1.3728    0.0238 C   0  0  0  0  0  0  0  0  0  0  0  0
   -8.9205   -1.1785   -1.4357 C   0  0  0  0  0  0  0  0  0  0  0  0
   -7.2908   -1.8425   -1.9552 S   0  0  0  0  0  0  0  0  0  0  0  0
   -8.7571   -1.7244    2.3815 C   0  0  0  0  0  0  0  0  0  0  0  0
   -9.9430   -1.5847    2.6481 O   0  0  0  0  0  0  0  0  0  0  0  0
   -7.9520   -1.9516    3.2743 O   0  0  0  0  0  1  0  0  0  0  0  0
    1.0121    1.6869    0.9027 H   0  0  0  0  0  0  0  0  0  0  0  0
   -0.3974    1.8487   -0.1721 H   0  0  0  0  0  0  0  0  0  0  0  0
   -0.6339    1.5715    1.5702 H   0  0  0  0  0  0  0  0  0  0  0  0
    1.3387   -1.1481   -0.0583 H   0  0  0  0  0  0  0  0  0  0  0  0
    1.6763   -6.6582   -0.5393 H   0  0  0  0  0  0  0  0  0  0  0  0
    0.0002   -6.7494   -0.4704 H   0  0  0  0  0  0  0  0  0  0  0  0
   -3.7523   -0.7671    0.1629 H   0  0  0  0  0  0  0  0  0  0  0  0
  -10.2060   -1.3035    0.3341 H   0  0  0  0  0  0  0  0  0  0  0  0
   -9.7063   -1.6785   -2.0020 H   0  0  0  0  0  0  0  0  0  0  0  0
   -8.9458   -0.1125   -1.6615 H   0  0  0  0  0  0  0  0  0  0  0  0
  1  2  1  0  0  0  0
  1 28  1  0  0  0  0
  1 29  1  0  0  0  0
  1 30  1  0  0  0  0
  2  3  1  0  0  0  0
  3  4  2  0  0  0  0
  4  5  1  0  0  0  0
  4 11  1  0  0  0  0
  5  9  1  0  0  0  0
  5  6  2  0  0  0  0
  6  7  1  0  0  0  0
  6 31  1  0  0  0  0
  7  8  1  0  0  0  0
  8  9  2  0  0  0  0
  8 10  1  0  0  0  0
 10 32  1  0  0  0  0
 10 33  1  0  0  0  0
 11 12  2  0  0  0  0
 11 13  1  0  0  0  0
 13 14  1  0  0  0  0
 13 34  1  0  0  0  0
 14 15  1  6  0  0  0
 14 19  1  0  0  0  0
 14 16  1  0  0  0  0
 16 17  1  6  0  0  0
 16 24  1  0  0  0  0
 16 18  1  0  0  0  0
 18 19  1  0  0  0  0
 18 21  1  0  0  0  0
 19 20  2  0  0  0  0
 21 22  2  0  0  0  0
 21 25  1  0  0  0  0
 22 23  1  0  0  0  0
 22 35  1  0  0  0  0
 23 24  1  0  0  0  0
 23 36  1  0  0  0  0
 23 37  1  0  0  0  0
 25 26  2  0  0  0  0
 25 27  1  0  0  0  0
M  END
$$$$
ZINC13416633
 OpenBabel01252620473D

 56 58  0  0  0  0  0  0  0  0999 V2000
    5.3435   -3.4976   -5.9171 C   0  0  0  0  0  0  0  0  0  0  0  0
    4.7450   -3.3163   -4.5207 C   0  0  0  0  0  0  0  0  0  0  0  0
    5.2664   -2.1241   -3.9301 O   0  0  0  0  0  0  0  0  0  0  0  0
    4.8327   -1.8142   -2.6792 C   0  0  0  0  0  0  0  0  0  0  0  0
    3.9250   -2.6391   -2.0347 C   0  0  0  0  0  0  0  0  0  0  0  0
    3.4890   -2.3254   -0.7608 C   0  0  0  0  0  0  0  0  0  0  0  0
    3.9477   -1.1832   -0.1307 C   0  0  0  0  0  0  0  0  0  0  0  0
    4.8531   -0.3552   -0.7667 C   0  0  0  0  0  0  0  0  0  0  0  0
    5.2995   -0.6665   -2.0427 C   0  0  0  0  0  0  0  0  0  0  0  0
    6.2179    0.1713   -2.6895 N   0  0  0  0  0  0  0  0  0  0  0  0
    7.0377    0.9587   -1.9654 C   0  0  0  0  0  0  0  0  0  0  0  0
    7.0516    0.8700   -0.7558 O   0  0  0  0  0  0  0  0  0  0  0  0
    7.9371    1.9495   -2.6587 C   0  0  0  0  0  0  0  0  0  0  0  0
    8.9077    2.8497   -1.4244 S   0  0  0  0  0  0  0  0  0  0  0  0
    9.8412    3.9067   -2.4808 C   0  0  0  0  0  0  0  0  0  0  0  0
   10.7400    4.8181   -2.1581 N   0  0  0  0  0  0  0  0  0  0  0  0
   11.3556    5.5276   -3.0850 C   0  0  0  0  0  0  0  0  0  0  0  0
   11.0373    5.3092   -4.3833 C   0  0  0  0  0  0  0  0  0  0  0  0
    9.8094    4.0223   -4.2131 S   0  0  0  0  0  0  0  0  0  0  0  0
   12.3851    6.5612   -2.7073 C   0  0  0  0  0  0  0  0  0  0  0  0
   11.7842    7.5332   -1.7249 C   0  0  0  0  0  0  0  0  0  0  0  0
   10.6375    7.4003   -1.3681 O   0  0  0  0  0  0  0  0  0  0  0  0
    3.3818   -0.7862    1.4901 S   0  0  0  0  0  0  0  0  0  0  0  0
    4.3787    0.0385    2.0776 O   0  0  0  0  0  0  0  0  0  0  0  0
    2.9563   -2.0060    2.0818 O   0  0  0  0  0  0  0  0  0  0  0  0
    2.0295    0.1543    1.3198 N   0  0  0  0  0  0  0  0  0  0  0  0
    0.6961   -0.4583    1.2450 C   0  0  0  0  0  0  0  0  0  0  0  0
   -0.0080    0.0459   -0.0186 C   0  0  0  0  0  0  0  0  0  0  0  0
   -0.0188    1.5763   -0.0155 C   0  0  0  0  0  0  0  0  0  0  0  0
    1.4199    2.0982   -0.0233 C   0  0  0  0  0  0  0  0  0  0  0  0
    2.1402    1.6172    1.2403 C   0  0  0  0  0  0  0  0  0  0  0  0
    4.9457   -4.4069   -6.3676 H   0  0  0  0  0  0  0  0  0  0  0  0
    5.0830   -2.6405   -6.5381 H   0  0  0  0  0  0  0  0  0  0  0  0
    6.4280   -3.5744   -5.8404 H   0  0  0  0  0  0  0  0  0  0  0  0
    5.0055   -4.1734   -3.8997 H   0  0  0  0  0  0  0  0  0  0  0  0
    3.6604   -3.2395   -4.5975 H   0  0  0  0  0  0  0  0  0  0  0  0
    3.5617   -3.5298   -2.5256 H   0  0  0  0  0  0  0  0  0  0  0  0
    2.7848   -2.9718   -0.2582 H   0  0  0  0  0  0  0  0  0  0  0  0
    5.2133    0.5337   -0.2703 H   0  0  0  0  0  0  0  0  0  0  0  0
    6.2636    0.1844   -3.6583 H   0  0  0  0  0  0  0  0  0  0  0  0
    8.6092    1.4197   -3.3337 H   0  0  0  0  0  0  0  0  0  0  0  0
    7.3309    2.6538   -3.2285 H   0  0  0  0  0  0  0  0  0  0  0  0
   11.4204    5.7822   -5.2755 H   0  0  0  0  0  0  0  0  0  0  0  0
   13.2443    6.0688   -2.2519 H   0  0  0  0  0  0  0  0  0  0  0  0
   12.7053    7.0983   -3.6002 H   0  0  0  0  0  0  0  0  0  0  0  0
    0.1153   -0.1778    2.1237 H   0  0  0  0  0  0  0  0  0  0  0  0
    0.7921   -1.5432    1.2016 H   0  0  0  0  0  0  0  0  0  0  0  0
   -1.0328   -0.3251   -0.0366 H   0  0  0  0  0  0  0  0  0  0  0  0
    0.5247   -0.3124   -0.8995 H   0  0  0  0  0  0  0  0  0  0  0  0
   -0.5409    1.9376   -0.9014 H   0  0  0  0  0  0  0  0  0  0  0  0
   -0.5300    1.9340    0.8782 H   0  0  0  0  0  0  0  0  0  0  0  0
    1.9391    1.7206   -0.9041 H   0  0  0  0  0  0  0  0  0  0  0  0
    1.4114    3.1880   -0.0447 H   0  0  0  0  0  0  0  0  0  0  0  0
    1.6771    2.0670    2.1185 H   0  0  0  0  0  0  0  0  0  0  0  0
    3.1912    1.9021    1.1926 H   0  0  0  0  0  0  0  0  0  0  0  0
   12.5228    8.5467   -1.2463 O   0  0  0  0  0  1  0  0  0  0  0  0
  1  2  1  0  0  0  0
  1 32  1  0  0  0  0
  1 33  1  0  0  0  0
  1 34  1  0  0  0  0
  2  3  1  0  0  0  0
  2 35  1  0  0  0  0
  2 36  1  0  0  0  0
  3  4  1  0  0  0  0
  4  9  2  0  0  0  0
  4  5  1  0  0  0  0
  5  6  2  0  0  0  0
  5 37  1  0  0  0  0
  6  7  1  0  0  0  0
  6 38  1  0  0  0  0
  7  8  2  0  0  0  0
  7 23  1  0  0  0  0
  8  9  1  0  0  0  0
  8 39  1  0  0  0  0
  9 10  1  0  0  0  0
 10 11  1  0  0  0  0
 10 40  1  0  0  0  0
 11 12  2  0  0  0  0
 11 13  1  0  0  0  0
 13 14  1  0  0  0  0
 13 41  1  0  0  0  0
 13 42  1  0  0  0  0
 14 15  1  0  0  0  0
 15 19  1  0  0  0  0
 15 16  2  0  0  0  0
 16 17  1  0  0  0  0
 17 18  2  0  0  0  0
 17 20  1  0  0  0  0
 18 19  1  0  0  0  0
 18 43  1  0  0  0  0
 20 21  1  0  0  0  0
 20 44  1  0  0  0  0
 20 45  1  0  0  0  0
 21 22  2  0  0  0  0
 21 56  1  0  0  0  0
 23 24  2  0  0  0  0
 23 25  2  0  0  0  0
 23 26  1  0  0  0  0
 26 31  1  0  0  0  0
 26 27  1  0  0  0  0
 27 28  1  0  0  0  0
 27 46  1  0  0  0  0
 27 47  1  0  0  0  0
 28 29  1  0  0  0  0
 28 48  1  0  0  0  0
 28 49  1  0  0  0  0
 29 30  1  0  0  0  0
 29 50  1  0  0  0  0
 29 51  1  0  0  0  0
 30 31  1  0  0  0  0
 30 52  1  0  0  0  0
 30 53  1  0  0  0  0
 31 54  1  0  0  0  0
 31 55  1  0  0  0  0
M  END
$$$$
ZINC20327452
 OpenBabel01252620473D

 40 41  0  0  1  0  0  0  0  0999 V2000
    0.4298    9.0636   -6.5266 C   0  0  0  0  0  0  0  0  0  0  0  0
    0.4152    9.9246   -5.2620 C   0  0  0  0  0  0  0  0  0  0  0  0
    1.7116    9.8233   -4.5872 N   0  0  0  0  0  0  0  0  0  0  0  0
    2.5122   10.8549   -4.2467 C   0  0  0  0  0  0  0  0  0  0  0  0
    3.6084   10.3434   -3.6402 C   0  0  0  0  0  0  0  0  0  0  0  0
    3.4773    8.9511   -3.6172 C   0  0  0  0  0  0  0  0  0  0  0  0
    2.3392    8.6383   -4.1816 N   0  0  0  0  0  0  0  0  0  0  0  0
    4.4722    7.9794   -3.0367 C   0  0  0  0  0  0  0  0  0  0  0  0
    4.0936    7.6578   -1.6584 N   0  0  0  0  0  0  0  0  0  0  0  0
    4.6069    8.4667   -0.5501 C   0  0  0  0  0  0  0  0  0  0  0  0
    3.2732    6.6177   -1.4102 C   0  0  0  0  0  0  0  0  0  0  0  0
    2.8483    5.9481   -2.3277 O   0  0  0  0  0  0  0  0  0  0  0  0
    2.8838    6.2870    0.0076 C   0  0  2  0  0  0  0  0  0  0  0  0
    2.3309    7.1296    0.4484 H   0  0  0  0  0  0  0  0  0  0  0  0
    4.1402    5.9689    0.8206 C   0  0  0  0  0  0  0  0  0  0  0  0
    1.9928    5.1241    0.0106 N   0  0  0  0  0  0  0  0  0  0  0  0
    2.3806    3.8391   -0.0001 C   0  0  0  0  0  0  0  0  0  0  0  0
    1.2383    3.0626    0.0067 C   0  0  0  0  0  0  0  0  0  0  0  0
    0.1344    3.9453    0.0158 C   0  0  0  0  0  0  0  0  0  0  0  0
    0.5942    5.1659    0.0241 N   0  0  0  0  0  0  0  0  0  0  0  0
    1.1812    1.5909   -0.0007 C   0  0  0  0  0  0  0  0  0  0  0  0
    2.2092    0.9429   -0.0140 O   0  0  0  0  0  0  0  0  0  0  0  0
   -0.0110    0.9628    0.0073 O   0  0  0  0  0  1  0  0  0  0  0  0
   -0.5436    9.1397   -7.0332 H   0  0  0  0  0  0  0  0  0  0  0  0
    0.6204    8.0151   -6.2541 H   0  0  0  0  0  0  0  0  0  0  0  0
    1.2231    9.4170   -7.2017 H   0  0  0  0  0  0  0  0  0  0  0  0
    0.2246   10.9731   -5.5345 H   0  0  0  0  0  0  0  0  0  0  0  0
   -0.3781    9.5712   -4.5869 H   0  0  0  0  0  0  0  0  0  0  0  0
    2.3119   11.9014   -4.4228 H   0  0  0  0  0  0  0  0  0  0  0  0
    4.4388   10.9101   -3.2456 H   0  0  0  0  0  0  0  0  0  0  0  0
    4.4801    7.0590   -3.6391 H   0  0  0  0  0  0  0  0  0  0  0  0
    5.4748    8.4320   -3.0455 H   0  0  0  0  0  0  0  0  0  0  0  0
    4.2161    8.0757    0.4009 H   0  0  0  0  0  0  0  0  0  0  0  0
    4.2840    9.5105   -0.6777 H   0  0  0  0  0  0  0  0  0  0  0  0
    5.7059    8.4213   -0.5413 H   0  0  0  0  0  0  0  0  0  0  0  0
    3.8559    5.7275    1.8555 H   0  0  0  0  0  0  0  0  0  0  0  0
    4.8092    6.8420    0.8183 H   0  0  0  0  0  0  0  0  0  0  0  0
    4.6587    5.1084    0.3726 H   0  0  0  0  0  0  0  0  0  0  0  0
    3.3986    3.4787   -0.0114 H   0  0  0  0  0  0  0  0  0  0  0  0
   -0.9070    3.6593    0.0186 H   0  0  0  0  0  0  0  0  0  0  0  0
  1  2  1  0  0  0  0
  1 24  1  0  0  0  0
  1 25  1  0  0  0  0
  1 26  1  0  0  0  0
  2  3  1  0  0  0  0
  2 27  1  0  0  0  0
  2 28  1  0  0  0  0
  3  7  1  0  0  0  0
  3  4  1  0  0  0  0
  4  5  2  0  0  0  0
  4 29  1  0  0  0  0
  5  6  1  0  0  0  0
  5 30  1  0  0  0  0
  6  7  2  0  0  0  0
  6  8  1  0  0  0  0
  8  9  1  0  0  0  0
  8 31  1  0  0  0  0
  8 32  1  0  0  0  0
  9 10  1  0  0  0  0
  9 11  1  0  0  0  0
 10 33  1  0  0  0  0
 10 34  1  0  0  0  0
 10 35  1  0  0  0  0
 11 12  2  0  0  0  0
 11 13  1  0  0  0  0
 13 14  1  1  0  0  0
 13 15  1  0  0  0  0
 13 16  1  0  0  0  0
 15 36  1  0  0  0  0
 15 37  1  0  0  0  0
 15 38  1  0  0  0  0
 16 20  1  0  0  0  0
 16 17  1  0  0  0  0
 17 18  2  0  0  0  0
 17 39  1  0  0  0  0
 18 19  1  0  0  0  0
 18 21  1  0  0  0  0
 19 20  2  0  0  0  0
 19 40  1  0  0  0  0
 21 22  2  0  0  0  0
 21 23  1  0  0  0  0
M  END
$$$$
ZINC40053099
 OpenBabel01252620473D

 54 57  0  0  1  0  0  0  0  0999 V2000
   -1.4533   -6.4530   -6.3039 C   0  0  0  0  0  0  0  0  0  0  0  0
   -0.9402   -6.0447   -4.9216 C   0  0  0  0  0  0  0  0  0  0  0  0
   -0.3364   -4.7519   -5.0003 O   0  0  0  0  0  0  0  0  0  0  0  0
    0.0723   -4.1892   -3.8317 C   0  0  0  0  0  0  0  0  0  0  0  0
   -0.0017   -4.9100   -2.6507 C   0  0  0  0  0  0  0  0  0  0  0  0
    0.4147   -4.3367   -1.4637 C   0  0  0  0  0  0  0  0  0  0  0  0
    0.9050   -3.0441   -1.4514 C   0  0  0  0  0  0  0  0  0  0  0  0
    0.9811   -2.3192   -2.6261 C   0  0  0  0  0  0  0  0  0  0  0  0
    0.5712   -2.8902   -3.8203 C   0  0  0  0  0  0  0  0  0  0  0  0
    0.6510   -2.1806   -4.9777 O   0  0  0  0  0  0  0  0  0  0  0  0
    0.3335   -5.1222   -0.1801 C   0  0  1  0  0  0  0  0  0  0  0  0
    0.6291   -4.4959    0.6615 H   0  0  0  0  0  0  0  0  0  0  0  0
   -1.0715   -5.6387    0.0249 C   0  0  0  0  0  0  0  0  0  0  0  0
   -0.9901   -6.9891    0.0576 C   0  0  0  0  0  0  0  0  0  0  0  0
    0.4190   -7.3951   -0.1181 C   0  0  0  0  0  0  0  0  0  0  0  0
    0.8169   -8.5431   -0.1349 O   0  0  0  0  0  0  0  0  0  0  0  0
    1.1983   -6.3055   -0.2570 N   0  0  0  0  0  0  0  0  0  0  0  0
    2.6503   -6.3012   -0.4517 C   0  0  0  0  0  0  0  0  0  0  0  0
    3.3472   -6.2526    0.9095 C   0  0  0  0  0  0  0  0  0  0  0  0
    4.8636   -6.2480    0.7062 C   0  0  0  0  0  0  0  0  0  0  0  0
    5.5145   -6.2026    1.9776 O   0  0  0  0  0  0  0  0  0  0  0  0
   -2.0344   -7.8337    0.2249 O   0  5  0  0  0  0  0  0  0  0  0  0
   -2.2890   -4.8320    0.1624 C   0  0  0  0  0  0  0  0  0  0  0  0
   -3.3788   -5.3749    0.1960 O   0  0  0  0  0  0  0  0  0  0  0  0
   -2.1938   -3.3693    0.2597 C   0  0  0  0  0  0  0  0  0  0  0  0
   -3.2524   -2.5139    0.2670 C   0  0  0  0  0  0  0  0  0  0  0  0
   -2.6865   -1.1711    0.3776 C   0  0  0  0  0  0  0  0  0  0  0  0
   -3.2324    0.1143    0.4350 C   0  0  0  0  0  0  0  0  0  0  0  0
   -2.4057    1.1968    0.5407 C   0  0  0  0  0  0  0  0  0  0  0  0
   -1.0284    1.0279    0.5912 C   0  0  0  0  0  0  0  0  0  0  0  0
   -0.4702   -0.2311    0.5356 C   0  0  0  0  0  0  0  0  0  0  0  0
   -1.2906   -1.3478    0.4285 C   0  0  0  0  0  0  0  0  0  0  0  0
   -1.0440   -2.6708    0.3612 O   0  0  0  0  0  0  0  0  0  0  0  0
   -2.2492   -5.7745   -6.6111 H   0  0  0  0  0  0  0  0  0  0  0  0
   -0.6363   -6.4042   -7.0238 H   0  0  0  0  0  0  0  0  0  0  0  0
   -1.8400   -7.4712   -6.2618 H   0  0  0  0  0  0  0  0  0  0  0  0
   -1.7732   -6.0144   -4.2192 H   0  0  0  0  0  0  0  0  0  0  0  0
   -0.2023   -6.7701   -4.5791 H   0  0  0  0  0  0  0  0  0  0  0  0
   -0.3850   -5.9197   -2.6574 H   0  0  0  0  0  0  0  0  0  0  0  0
    1.2290   -2.5995   -0.5220 H   0  0  0  0  0  0  0  0  0  0  0  0
    1.3642   -1.3095   -2.6137 H   0  0  0  0  0  0  0  0  0  0  0  0
   -0.1413   -1.6634   -5.1774 H   0  0  0  0  0  0  0  0  0  0  0  0
    2.9487   -7.2063   -0.9805 H   0  0  0  0  0  0  0  0  0  0  0  0
    2.9357   -5.4273   -1.0374 H   0  0  0  0  0  0  0  0  0  0  0  0
    3.0488   -5.3474    1.4384 H   0  0  0  0  0  0  0  0  0  0  0  0
    3.0617   -7.1264    1.4953 H   0  0  0  0  0  0  0  0  0  0  0  0
    5.1620   -7.1532    0.1774 H   0  0  0  0  0  0  0  0  0  0  0  0
    5.1490   -5.3742    0.1205 H   0  0  0  0  0  0  0  0  0  0  0  0
    6.4800   -6.1973    1.9251 H   0  0  0  0  0  0  0  0  0  0  0  0
   -4.2986   -2.7746    0.2038 H   0  0  0  0  0  0  0  0  0  0  0  0
   -4.3029    0.2512    0.3957 H   0  0  0  0  0  0  0  0  0  0  0  0
   -2.8262    2.1906    0.5848 H   0  0  0  0  0  0  0  0  0  0  0  0
   -0.3872    1.8930    0.6748 H   0  0  0  0  0  0  0  0  0  0  0  0
    0.6026   -0.3495    0.5751 H   0  0  0  0  0  0  0  0  0  0  0  0
  1  2  1  0  0  0  0
  1 34  1  0  0  0  0
  1 35  1  0  0  0  0
  1 36  1  0  0  0  0
  2  3  1  0  0  0  0
  2 37  1  0  0  0  0
  2 38  1  0  0  0  0
  3  4  1  0  0  0  0
  4  9  2  0  0  0  0
  4  5  1  0  0  0  0
  5  6  2  0  0  0  0
  5 39  1  0  0  0  0
  6  7  1  0  0  0  0
  6 11  1  0  0  0  0
  7  8  2  0  0  0  0
  7 40  1  0  0  0  0
  8  9  1  0  0  0  0
  8 41  1  0  0  0  0
  9 10  1  0  0  0  0
 10 42  1  0  0  0  0
 11 12  1  1  0  0  0
 11 17  1  0  0  0  0
 11 13  1  0  0  0  0
 13 14  2  0  0  0  0
 13 23  1  0  0  0  0
 14 15  1  0  0  0  0
 14 22  1  0  0  0  0
 15 16  2  0  0  0  0
 15 17  1  0  0  0  0
 17 18  1  0  0  0  0
 18 19  1  0  0  0  0
 18 43  1  0  0  0  0
 18 44  1  0  0  0  0
 19 20  1  0  0  0  0
 19 45  1  0  0  0  0
 19 46  1  0  0  0  0
 20 21  1  0  0  0  0
 20 47  1  0  0  0  0
 20 48  1  0  0  0  0
 21 49  1  0  0  0  0
 23 24  2  0  0  0  0
 23 25  1  0  0  0  0
 25 33  1  0  0  0  0
 25 26  2  0  0  0  0
 26 27  1  0  0  0  0
 26 50  1  0  0  0  0
 27 32  2  0  0  0  0
 27 28  1  0  0  0  0
 28 29  2  0  0  0  0
 28 51  1  0  0  0  0
 29 30  1  0  0  0  0
 29 52  1  0  0  0  0
 30 31  2  0  0  0  0
 30 53  1  0  0  0  0
 31 32  1  0  0  0  0
 31 54  1  0  0  0  0
 32 33  1  0  0  0  0
M  CHG  1  22  -1
M  END
$$$$
ZINC63941667
 OpenBabel01252620473D

 37 39  0  0  1  0  0  0  0  0999 V2000
   -0.0225    1.8097    0.0120 C   0  0  0  0  0  0  0  0  0  0  0  0
    0.0021   -0.0041    0.0020 S   0  0  0  0  0  0  0  0  0  0  0  0
   -1.7518   -0.4668    0.0163 C   0  0  1  0  0  0  0  0  0  0  0  0
   -1.8478   -1.5526    0.0239 H   0  0  0  0  0  0  0  0  0  0  0  0
   -2.4043    0.0973    1.1967 N   0  0  0  0  0  0  0  0  0  0  0  0
   -3.3459    0.8888    0.8753 C   0  0  0  0  0  0  0  0  0  0  0  0
   -3.4665    0.9739   -0.6249 C   0  0  0  0  0  0  0  0  0  0  0  0
   -2.4235    0.0854   -1.1699 N   0  0  0  0  0  0  0  0  0  0  0  0
   -2.1368   -0.1725   -2.5058 C   0  0  0  0  0  0  0  0  0  0  0  0
   -1.1092   -1.0508   -2.8387 C   0  0  0  0  0  0  0  0  0  0  0  0
   -0.8227   -1.3078   -4.1598 C   0  0  0  0  0  0  0  0  0  0  0  0
   -1.5652   -0.6861   -5.1684 C   0  0  0  0  0  0  0  0  0  0  0  0
   -2.5969    0.1951   -4.8306 C   0  0  0  0  0  0  0  0  0  0  0  0
   -2.8818    0.4438   -3.5076 C   0  0  0  0  0  0  0  0  0  0  0  0
   -1.2606   -0.9589   -6.5852 C   0  0  0  0  0  0  0  0  0  0  0  0
   -0.3628   -1.7251   -6.8775 O   0  0  0  0  0  0  0  0  0  0  0  0
   -1.9773   -0.3589   -7.5562 N   0  0  0  0  0  0  0  0  0  0  0  0
   -1.6907   -0.6154   -8.8889 C   0  0  0  0  0  0  0  0  0  0  0  0
   -0.7305   -1.4441   -9.3497 N   0  0  0  0  0  2  0  0  0  0  0  0
   -0.8034   -1.3923  -10.7511 N   0  0  0  0  0  0  0  0  0  0  0  0
   -1.7685   -0.5653  -11.0525 C   0  0  0  0  0  0  0  0  0  0  0  0
   -2.3103   -0.0986   -9.9274 N   0  0  0  0  0  0  0  0  0  0  0  0
   -2.2038   -0.2015  -12.4486 C   0  0  0  0  0  0  0  0  0  0  0  0
   -1.6678   -1.1193  -13.3582 F   0  0  0  0  0  0  0  0  0  0  0  0
   -3.6004   -0.2312  -12.5243 F   0  0  0  0  0  0  0  0  0  0  0  0
   -1.7472    1.0839  -12.7594 F   0  0  0  0  0  0  0  0  0  0  0  0
    1.0001    2.1870    0.0043 H   0  0  0  0  0  0  0  0  0  0  0  0
   -0.5497    2.1708   -0.8711 H   0  0  0  0  0  0  0  0  0  0  0  0
   -0.5327    2.1613    0.9088 H   0  0  0  0  0  0  0  0  0  0  0  0
   -4.4520    0.6326   -0.9421 H   0  0  0  0  0  0  0  0  0  0  0  0
   -3.9698    1.4234    1.5763 H   0  0  0  0  0  0  0  0  0  0  0  0
   -3.2988    1.9983   -0.9573 H   0  0  0  0  0  0  0  0  0  0  0  0
   -0.5360   -1.5307   -2.0593 H   0  0  0  0  0  0  0  0  0  0  0  0
   -0.0249   -1.9887   -4.4175 H   0  0  0  0  0  0  0  0  0  0  0  0
   -3.1721    0.6771   -5.6073 H   0  0  0  0  0  0  0  0  0  0  0  0
   -3.6812    1.1212   -3.2460 H   0  0  0  0  0  0  0  0  0  0  0  0
   -2.6934    0.2524   -7.3231 H   0  0  0  0  0  0  0  0  0  0  0  0
  1  2  1  0  0  0  0
  1 27  1  0  0  0  0
  1 28  1  0  0  0  0
  1 29  1  0  0  0  0
  2  3  1  0  0  0  0
  3  4  1  1  0  0  0
  3  8  1  0  0  0  0
  3  5  1  0  0  0  0
  5  6  2  0  0  0  0
  6  7  1  0  0  0  0
  6 31  1  0  0  0  0
  7  8  1  0  0  0  0
  7 32  1  0  0  0  0
  7 30  1  0  0  0  0
  8  9  1  0  0  0  0
  9 14  2  0  0  0  0
  9 10  1  0  0  0  0
 10 11  2  0  0  0  0
 10 33  1  0  0  0  0
 11 12  1  0  0  0  0
 11 34  1  0  0  0  0
 12 13  2  0  0  0  0
 12 15  1  0  0  0  0
 13 14  1  0  0  0  0
 13 35  1  0  0  0  0
 14 36  1  0  0  0  0
 15 16  2  0  0  0  0
 15 17  1  0  0  0  0
 17 18  1  0  0  0  0
 17 37  1  0  0  0  0
 18 22  2  0  0  0  0
 18 19  1  0  0  0  0
 19 20  1  0  0  0  0
 20 21  2  0  0  0  0
 21 22  1  0  0  0  0
 21 23  1  0  0  0  0
 23 24  1  0  0  0  0
 23 25  1  0  0  0  0
 23 26  1  0  0  0  0
M  END
$$$$
ZINC39582846
 OpenBabel01252620473D

 34 35  0  0  1  0  0  0  0  0999 V2000
   -0.0187    1.5258    0.0104 C   0  0  0  0  0  0  0  0  0  0  0  0
    0.0021   -0.0041    0.0020 C   0  0  0  0  0  0  0  0  0  0  0  0
    0.7074   -0.4901   -1.2379 C   0  0  0  0  0  0  0  0  0  0  0  0
    2.0115   -0.8033   -1.2161 C   0  0  0  0  0  0  0  0  0  0  0  0
    2.6261   -1.2722   -2.4765 C   0  0  0  0  0  0  0  0  0  0  0  0
    3.8975   -1.5925   -2.5194 N   0  0  0  0  0  0  0  0  0  0  0  0
    4.6660   -1.5072   -1.4449 C   0  0  0  0  0  0  0  0  0  0  0  0
    4.2308   -1.1052   -0.2750 N   0  0  0  0  0  0  0  0  0  0  0  0
    2.9619   -0.7424   -0.0601 C   0  0  0  0  0  0  0  0  0  0  0  0
    2.5907   -0.3731    1.0411 O   0  0  0  0  0  0  0  0  0  0  0  0
    6.1172   -1.8927   -1.5727 C   0  0  0  0  0  0  0  0  0  0  0  0
    6.8121   -1.7191   -0.2207 C   0  0  0  0  0  0  0  0  0  0  0  0
    8.2854   -2.1105   -0.3505 C   0  0  0  0  0  0  0  0  0  0  0  0
    8.9698   -1.9395    0.9812 C   0  0  0  0  0  0  0  0  0  0  0  0
    8.3377   -1.5415    1.9448 O   0  0  0  0  0  0  0  0  0  0  0  0
   10.1556   -2.1992    1.0950 O   0  0  0  0  0  1  0  0  0  0  0  0
    1.3028   -1.2490   -3.6593 S   0  0  0  0  0  0  0  0  0  0  0  0
   -0.0320   -0.6471   -2.5471 C   0  0  1  0  0  0  0  0  0  0  0  0
   -0.4235    0.3101   -2.8915 H   0  0  0  0  0  0  0  0  0  0  0  0
   -1.1521   -1.6820   -2.4229 C   0  0  0  0  0  0  0  0  0  0  0  0
    1.0039    1.9031    0.0027 H   0  0  0  0  0  0  0  0  0  0  0  0
   -0.5459    1.8868   -0.8726 H   0  0  0  0  0  0  0  0  0  0  0  0
   -0.5289    1.8773    0.9072 H   0  0  0  0  0  0  0  0  0  0  0  0
    0.5293   -0.3651    0.8851 H   0  0  0  0  0  0  0  0  0  0  0  0
   -1.0205   -0.3814    0.0098 H   0  0  0  0  0  0  0  0  0  0  0  0
    6.1902   -2.9336   -1.8878 H   0  0  0  0  0  0  0  0  0  0  0  0
    6.5989   -1.2542   -2.3134 H   0  0  0  0  0  0  0  0  0  0  0  0
    6.7390   -0.6782    0.0943 H   0  0  0  0  0  0  0  0  0  0  0  0
    6.3304   -2.3575    0.5199 H   0  0  0  0  0  0  0  0  0  0  0  0
    8.3585   -3.1514   -0.6656 H   0  0  0  0  0  0  0  0  0  0  0  0
    8.7671   -1.4721   -1.0912 H   0  0  0  0  0  0  0  0  0  0  0  0
   -1.8595   -1.3617   -1.6580 H   0  0  0  0  0  0  0  0  0  0  0  0
   -1.6679   -1.7755   -3.3785 H   0  0  0  0  0  0  0  0  0  0  0  0
   -0.7268   -2.6460   -2.1437 H   0  0  0  0  0  0  0  0  0  0  0  0
  1  2  1  0  0  0  0
  1 21  1  0  0  0  0
  1 22  1  0  0  0  0
  1 23  1  0  0  0  0
  2  3  1  0  0  0  0
  2 24  1  0  0  0  0
  2 25  1  0  0  0  0
  3 18  1  0  0  0  0
  3  4  2  0  0  0  0
  4  9  1  0  0  0  0
  4  5  1  0  0  0  0
  5  6  2  0  0  0  0
  5 17  1  0  0  0  0
  6  7  1  0  0  0  0
  7  8  2  0  0  0  0
  7 11  1  0  0  0  0
  8  9  1  0  0  0  0
  9 10  2  0  0  0  0
 11 12  1  0  0  0  0
 11 26  1  0  0  0  0
 11 27  1  0  0  0  0
 12 13  1  0  0  0  0
 12 28  1  0  0  0  0
 12 29  1  0  0  0  0
 13 14  1  0  0  0  0
 13 30  1  0  0  0  0
 13 31  1  0  0  0  0
 14 15  2  0  0  0  0
 14 16  1  0  0  0  0
 17 18  1  0  0  0  0
 18 19  1  6  0  0  0
 18 20  1  0  0  0  0
 20 32  1  0  0  0  0
 20 33  1  0  0  0  0
 20 34  1  0  0  0  0
M  END
$$$$
ZINC63208550
 OpenBabel01252620473D

 54 54  0  0  0  0  0  0  0  0999 V2000
   -0.0432    1.5321    0.0723 C   0  0  0  0  0  0  0  0  0  0  0  0
   -0.0273    0.0022    0.0626 C   0  0  0  0  0  0  0  0  0  0  0  0
    0.7256   -0.5078    1.2930 C   0  0  0  0  0  0  0  0  0  0  0  0
    0.7409   -1.9727    1.2837 N   0  0  0  0  0  0  0  0  0  0  0  0
    1.3528   -2.6466    2.2776 C   0  0  0  0  0  0  0  0  0  0  0  0
    1.8910   -2.0402    3.1797 O   0  0  0  0  0  0  0  0  0  0  0  0
    1.3685   -4.1535    2.2681 C   0  0  0  0  0  0  0  0  0  0  0  0
    2.1215   -4.6634    3.4985 C   0  0  0  0  0  0  0  0  0  0  0  0
    2.1367   -6.1283    3.4892 N   0  0  0  0  0  0  0  0  0  0  0  0
    2.7487   -6.8022    4.4831 C   0  0  0  0  0  0  0  0  0  0  0  0
    3.2872   -6.1955    5.3858 O   0  0  0  0  0  0  0  0  0  0  0  0
    2.7642   -8.2956    4.4737 C   0  0  0  0  0  0  0  0  0  0  0  0
    2.2257   -8.9024    3.5709 O   0  0  0  0  0  0  0  0  0  0  0  0
    3.3762   -8.9695    5.4676 N   0  0  0  0  0  0  0  0  0  0  0  0
    3.3084  -10.3644    5.5109 C   0  0  0  0  0  0  0  0  0  0  0  0
    3.2367  -11.0199    6.7346 C   0  0  0  0  0  0  0  0  0  0  0  0
    3.1692  -12.3988    6.7779 C   0  0  0  0  0  0  0  0  0  0  0  0
    3.1732  -13.1310    5.6059 C   0  0  0  0  0  0  0  0  0  0  0  0
    3.2452  -12.4821    4.3798 C   0  0  0  0  0  0  0  0  0  0  0  0
    3.3069  -11.0969    4.3321 C   0  0  0  0  0  0  0  0  0  0  0  0
    3.2500  -13.2248    3.1936 N   0  0  0  0  0  0  0  0  0  0  0  0
    2.5271  -14.3588    3.1055 C   0  0  0  0  0  0  0  0  0  0  0  0
    1.9385  -14.7814    4.0810 O   0  0  0  0  0  0  0  0  0  0  0  0
    2.4571  -15.0236    1.9367 O   0  0  0  0  0  0  0  0  0  0  0  0
    1.6730  -16.2180    1.9156 C   0  0  0  0  0  0  0  0  0  0  0  0
    1.7123  -16.8292    0.5135 C   0  0  0  0  0  0  0  0  0  0  0  0
    3.0455  -17.2468    0.2131 O   0  0  0  0  0  0  0  0  0  0  0  0
    3.1927  -17.8349   -1.0809 C   0  0  0  0  0  0  0  0  0  0  0  0
    0.9804    1.9062    0.0527 H   0  0  0  0  0  0  0  0  0  0  0  0
   -0.5797    1.8954   -0.8043 H   0  0  0  0  0  0  0  0  0  0  0  0
   -0.5417    1.8845    0.9753 H   0  0  0  0  0  0  0  0  0  0  0  0
   -1.0509   -0.3719    0.0822 H   0  0  0  0  0  0  0  0  0  0  0  0
    0.4711   -0.3503   -0.8404 H   0  0  0  0  0  0  0  0  0  0  0  0
    1.7492   -0.1337    1.2734 H   0  0  0  0  0  0  0  0  0  0  0  0
    0.2272   -0.1553    2.1960 H   0  0  0  0  0  0  0  0  0  0  0  0
    0.3105   -2.4577    0.5623 H   0  0  0  0  0  0  0  0  0  0  0  0
    0.3449   -4.5276    2.2877 H   0  0  0  0  0  0  0  0  0  0  0  0
    1.8670   -4.5059    1.3651 H   0  0  0  0  0  0  0  0  0  0  0  0
    3.1451   -4.2893    3.4789 H   0  0  0  0  0  0  0  0  0  0  0  0
    1.6230   -4.3110    4.4015 H   0  0  0  0  0  0  0  0  0  0  0  0
    1.7063   -6.6133    2.7678 H   0  0  0  0  0  0  0  0  0  0  0  0
    3.8637   -8.4861    6.1529 H   0  0  0  0  0  0  0  0  0  0  0  0
    3.2341  -10.4505    7.6523 H   0  0  0  0  0  0  0  0  0  0  0  0
    3.1136  -12.9059    7.7299 H   0  0  0  0  0  0  0  0  0  0  0  0
    3.1207  -14.2091    5.6433 H   0  0  0  0  0  0  0  0  0  0  0  0
    3.3580  -10.5899    3.3799 H   0  0  0  0  0  0  0  0  0  0  0  0
    3.7737  -12.9232    2.4348 H   0  0  0  0  0  0  0  0  0  0  0  0
    2.0775  -16.9309    2.6342 H   0  0  0  0  0  0  0  0  0  0  0  0
    0.6425  -15.9809    2.1798 H   0  0  0  0  0  0  0  0  0  0  0  0
    1.0443  -17.6896    0.4734 H   0  0  0  0  0  0  0  0  0  0  0  0
    1.3914  -16.0857   -0.2161 H   0  0  0  0  0  0  0  0  0  0  0  0
    2.9025  -17.1123   -1.8436 H   0  0  0  0  0  0  0  0  0  0  0  0
    4.2325  -18.1249   -1.2321 H   0  0  0  0  0  0  0  0  0  0  0  0
    2.5554  -18.7162   -1.1541 H   0  0  0  0  0  0  0  0  0  0  0  0
  1  2  1  0  0  0  0
  1 29  1  0  0  0  0
  1 30  1  0  0  0  0
  1 31  1  0  0  0  0
  2  3  1  0  0  0  0
  2 32  1  0  0  0  0
  2 33  1  0  0  0  0
  3  4  1  0  0  0  0
  3 34  1  0  0  0  0
  3 35  1  0  0  0  0
  4  5  1  0  0  0  0
  4 36  1  0  0  0  0
  5  6  2  0  0  0  0
  5  7  1  0  0  0  0
  7  8  1  0  0  0  0
  7 37  1  0  0  0  0
  7 38  1  0  0  0  0
  8  9  1  0  0  0  0
  8 39  1  0  0  0  0
  8 40  1  0  0  0  0
  9 10  1  0  0  0  0
  9 41  1  0  0  0  0
 10 11  2  0  0  0  0
 10 12  1  0  0  0  0
 12 13  2  0  0  0  0
 12 14  1  0  0  0  0
 14 15  1  0  0  0  0
 14 42  1  0  0  0  0
 15 20  2  0  0  0  0
 15 16  1  0  0  0  0
 16 17  2  0  0  0  0
 16 43  1  0  0  0  0
 17 18  1  0  0  0  0
 17 44  1  0  0  0  0
 18 19  2  0  0  0  0
 18 45  1  0  0  0  0
 19 20  1  0  0  0  0
 19 21  1  0  0  0  0
 20 46  1  0  0  0  0
 21 22  1  0  0  0  0
 21 47  1  0  0  0  0
 22 23  2  0  0  0  0
 22 24  1  0  0  0  0
 24 25  1  0  0  0  0
 25 26  1  0  0  0  0
 25 48  1  0  0  0  0
 25 49  1  0  0  0  0
 26 27  1  0  0  0  0
 26 50  1  0  0  0  0
 26 51  1  0  0  0  0
 27 28  1  0  0  0  0
 28 52  1  0  0  0  0
 28 53  1  0  0  0  0
 28 54  1  0  0  0  0
M  END
$$$$
ZINC16932361
 OpenBabel01252620473D

 43 44  0  0  1  0  0  0  0  0999 V2000
   -1.3778   -0.3959   -3.1808 C   0  0  0  0  0  0  0  0  0  0  0  0
   -1.2513   -0.4702   -1.6579 C   0  0  1  0  0  0  0  0  0  0  0  0
   -2.0073    0.1670   -1.1990 H   0  0  0  0  0  0  0  0  0  0  0  0
   -1.4525   -1.8937   -1.2060 C   0  0  0  0  0  0  0  0  0  0  0  0
   -0.5729   -2.4682   -0.6092 O   0  0  0  0  0  0  0  0  0  0  0  0
    0.0487   -0.0252   -1.2656 O   0  0  0  0  0  0  0  0  0  0  0  0
    0.2340    1.3153   -1.1552 C   0  0  0  0  0  0  0  0  0  0  0  0
    1.4560    1.8115   -0.7161 C   0  0  0  0  0  0  0  0  0  0  0  0
    1.6511    3.1700   -0.6069 C   0  0  0  0  0  0  0  0  0  0  0  0
    0.6121    4.0519   -0.9290 C   0  0  0  0  0  0  0  0  0  0  0  0
   -0.6186    3.5462   -1.3657 C   0  0  0  0  0  0  0  0  0  0  0  0
   -0.8008    2.1862   -1.4762 C   0  0  0  0  0  0  0  0  0  0  0  0
    0.8126    5.5017   -0.8096 C   0  0  0  0  0  0  0  0  0  0  0  0
   -0.2532    6.3408   -0.8614 C   0  0  0  0  0  0  0  0  0  0  0  0
   -0.2877    7.8150   -0.9376 C   0  0  0  0  0  0  0  0  0  0  0  0
    0.7327    8.4780   -0.9637 O   0  0  0  0  0  0  0  0  0  0  0  0
   -1.4834    8.3783   -0.9796 N   0  0  0  0  0  0  0  0  0  0  0  0
   -2.6116    7.6404   -0.9436 C   0  0  0  0  0  0  0  0  0  0  0  0
   -4.2362    8.1792   -0.9813 S   0  0  0  0  0  0  0  0  0  0  0  0
   -2.0009    5.9652   -0.8481 S   0  0  0  0  0  0  0  0  0  0  0  0
   -1.5848    9.8375   -1.0614 C   0  0  2  0  0  0  0  0  0  0  0  0
   -0.5848   10.2707   -1.0815 H   0  0  0  0  0  0  0  0  0  0  0  0
   -2.3447   10.3651    0.1572 C   0  0  0  0  0  0  0  0  0  0  0  0
   -1.5336   10.0861    1.4241 C   0  0  0  0  0  0  0  0  0  0  0  0
   -2.2821   10.6057    2.6245 C   0  0  0  0  0  0  0  0  0  0  0  0
   -3.3543   11.1440    2.4813 O   0  0  0  0  0  0  0  0  0  0  0  0
   -2.3232   10.2201   -2.3182 C   0  0  0  0  0  0  0  0  0  0  0  0
   -2.7237    9.3619   -3.0685 O   0  0  0  0  0  0  0  0  0  0  0  0
   -2.3694   -0.7353   -3.4801 H   0  0  0  0  0  0  0  0  0  0  0  0
   -1.2323    0.6337   -3.5077 H   0  0  0  0  0  0  0  0  0  0  0  0
   -0.6218   -1.0330   -3.6397 H   0  0  0  0  0  0  0  0  0  0  0  0
    2.2552    1.1303   -0.4638 H   0  0  0  0  0  0  0  0  0  0  0  0
    2.6024    3.5546   -0.2700 H   0  0  0  0  0  0  0  0  0  0  0  0
   -1.4232    4.2220   -1.6157 H   0  0  0  0  0  0  0  0  0  0  0  0
   -1.7494    1.7951   -1.8133 H   0  0  0  0  0  0  0  0  0  0  0  0
    1.8079    5.9004   -0.6806 H   0  0  0  0  0  0  0  0  0  0  0  0
   -2.4978   11.4392    0.0530 H   0  0  0  0  0  0  0  0  0  0  0  0
   -3.3110    9.8655    0.2271 H   0  0  0  0  0  0  0  0  0  0  0  0
   -1.3805    9.0119    1.5284 H   0  0  0  0  0  0  0  0  0  0  0  0
   -0.5673   10.5857    1.3542 H   0  0  0  0  0  0  0  0  0  0  0  0
   -2.6090   -2.5235   -1.4665 O   0  0  0  0  0  1  0  0  0  0  0  0
   -1.7576   10.4706    3.8526 O   0  0  0  0  0  1  0  0  0  0  0  0
   -2.5361   11.5142   -2.6040 O   0  0  0  0  0  1  0  0  0  0  0  0
  1  2  1  0  0  0  0
  1 29  1  0  0  0  0
  1 30  1  0  0  0  0
  1 31  1  0  0  0  0
  2  3  1  1  0  0  0
  2  4  1  0  0  0  0
  2  6  1  0  0  0  0
  4  5  2  0  0  0  0
  4 41  1  0  0  0  0
  6  7  1  0  0  0  0
  7 12  2  0  0  0  0
  7  8  1  0  0  0  0
  8  9  2  0  0  0  0
  8 32  1  0  0  0  0
  9 10  1  0  0  0  0
  9 33  1  0  0  0  0
 10 11  2  0  0  0  0
 10 13  1  0  0  0  0
 11 12  1  0  0  0  0
 11 34  1  0  0  0  0
 12 35  1  0  0  0  0
 13 14  2  0  0  0  0
 13 36  1  0  0  0  0
 14 20  1  0  0  0  0
 14 15  1  0  0  0  0
 15 16  2  0  0  0  0
 15 17  1  0  0  0  0
 17 18  1  0  0  0  0
 17 21  1  0  0  0  0
 18 19  2  0  0  0  0
 18 20  1  0  0  0  0
 21 22  1  6  0  0  0
 21 23  1  0  0  0  0
 21 27  1  0  0  0  0
 23 24  1  0  0  0  0
 23 37  1  0  0  0  0
 23 38  1  0  0  0  0
 24 25  1  0  0  0  0
 24 39  1  0  0  0  0
 24 40  1  0  0  0  0
 25 26  2  0  0  0  0
 25 42  1  0  0  0  0
 27 28  2  0  0  0  0
 27 43  1  0  0  0  0
M  END
$$$$
ZINC25365411
 OpenBabel01252620473D

 44 46  0  0  0  0  0  0  0  0999 V2000
    7.3689    1.0594    3.9636 C   0  0  0  0  0  0  0  0  0  0  0  0
    6.2303    1.0183    2.9771 C   0  0  0  0  0  0  0  0  0  0  0  0
    5.1307    1.8371    3.1562 C   0  0  0  0  0  0  0  0  0  0  0  0
    4.0835    1.7958    2.2550 C   0  0  0  0  0  0  0  0  0  0  0  0
    4.1402    0.9440    1.1677 C   0  0  0  0  0  0  0  0  0  0  0  0
    5.2427    0.1287    0.9848 C   0  0  0  0  0  0  0  0  0  0  0  0
    6.2881    0.1664    1.8906 C   0  0  0  0  0  0  0  0  0  0  0  0
    5.3143   -0.9417   -0.3800 Cl  0  0  0  0  0  0  0  0  0  0  0  0
    2.8087    0.8972    0.0146 S   0  0  0  0  0  0  0  0  0  0  0  0
    2.4570   -0.4704   -0.1443 O   0  0  0  0  0  0  0  0  0  0  0  0
    1.8730    1.8806    0.4347 O   0  0  0  0  0  0  0  0  0  0  0  0
    3.4061    1.4048   -1.4441 N   0  0  0  0  0  2  0  0  0  0  0  0
    3.8197    2.7289   -1.6067 C   0  0  0  0  0  0  0  0  0  0  0  0
    4.6157    3.3333   -0.6416 C   0  0  0  0  0  0  0  0  0  0  0  0
    5.0232    4.6424   -0.8058 C   0  0  0  0  0  0  0  0  0  0  0  0
    4.6402    5.3517   -1.9297 C   0  0  0  0  0  0  0  0  0  0  0  0
    3.8481    4.7533   -2.8921 C   0  0  0  0  0  0  0  0  0  0  0  0
    3.4410    3.4426   -2.7365 C   0  0  0  0  0  0  0  0  0  0  0  0
    3.3632    5.6616   -4.3220 S   0  0  0  0  0  0  0  0  0  0  0  0
    2.1741    5.0525   -4.8060 O   0  0  0  0  0  0  0  0  0  0  0  0
    3.4258    7.0369   -3.9701 O   0  0  0  0  0  0  0  0  0  0  0  0
    4.5249    5.4149   -5.4760 N   0  0  0  0  0  0  0  0  0  0  0  0
    4.7318    4.0756   -6.0326 C   0  0  0  0  0  0  0  0  0  0  0  0
    5.5561    4.1761   -7.2902 C   0  0  0  0  0  0  0  0  0  0  0  0
    6.8985    4.1245   -7.3571 C   0  0  0  0  0  0  0  0  0  0  0  0
    7.2461    4.2574   -8.7211 C   0  0  0  0  0  0  0  0  0  0  0  0
    6.0952    4.3824   -9.4061 C   0  0  0  0  0  0  0  0  0  0  0  0
    5.0746    4.3266   -8.5349 O   0  0  0  0  0  0  0  0  0  0  0  0
    7.1436    1.7913    4.7533 H   0  0  0  0  0  0  0  0  0  0  0  0
    8.2933    1.3529    3.4446 H   0  0  0  0  0  0  0  0  0  0  0  0
    7.5008    0.0641    4.4129 H   0  0  0  0  0  0  0  0  0  0  0  0
    5.0881    2.5062    4.0029 H   0  0  0  0  0  0  0  0  0  0  0  0
    3.2229    2.4324    2.3978 H   0  0  0  0  0  0  0  0  0  0  0  0
    7.1493   -0.4697    1.7481 H   0  0  0  0  0  0  0  0  0  0  0  0
    4.9156    2.7797    0.2359 H   0  0  0  0  0  0  0  0  0  0  0  0
    5.6419    5.1127   -0.0560 H   0  0  0  0  0  0  0  0  0  0  0  0
    4.9609    6.3752   -2.0560 H   0  0  0  0  0  0  0  0  0  0  0  0
    2.8259    2.9744   -3.4907 H   0  0  0  0  0  0  0  0  0  0  0  0
    5.2416    6.2194   -5.6977 H   0  0  0  0  0  0  0  0  0  0  0  0
    5.2595    3.4505   -5.2973 H   0  0  0  0  0  0  0  0  0  0  0  0
    3.7578    3.6218   -6.2679 H   0  0  0  0  0  0  0  0  0  0  0  0
    7.5801    4.0050   -6.5279 H   0  0  0  0  0  0  0  0  0  0  0  0
    8.2442    4.2588   -9.1337 H   0  0  0  0  0  0  0  0  0  0  0  0
    6.0068    4.5020  -10.4758 H   0  0  0  0  0  0  0  0  0  0  0  0
  1  2  1  0  0  0  0
  1 29  1  0  0  0  0
  1 30  1  0  0  0  0
  1 31  1  0  0  0  0
  2  7  2  0  0  0  0
  2  3  1  0  0  0  0
  3  4  2  0  0  0  0
  3 32  1  0  0  0  0
  4  5  1  0  0  0  0
  4 33  1  0  0  0  0
  5  6  2  0  0  0  0
  5  9  1  0  0  0  0
  6  7  1  0  0  0  0
  6  8  1  0  0  0  0
  7 34  1  0  0  0  0
  9 10  2  0  0  0  0
  9 11  2  0  0  0  0
  9 12  1  0  0  0  0
 12 13  1  0  0  0  0
 13 18  2  0  0  0  0
 13 14  1  0  0  0  0
 14 15  2  0  0  0  0
 14 35  1  0  0  0  0
 15 16  1  0  0  0  0
 15 36  1  0  0  0  0
 16 17  2  0  0  0  0
 16 37  1  0  0  0  0
 17 18  1  0  0  0  0
 17 19  1  0  0  0  0
 18 38  1  0  0  0  0
 19 20  2  0  0  0  0
 19 21  2  0  0  0  0
 19 22  1  0  0  0  0
 22 23  1  0  0  0  0
 22 39  1  0  0  0  0
 23 24  1  0  0  0  0
 23 40  1  0  0  0  0
 23 41  1  0  0  0  0
 24 28  1  0  0  0  0
 24 25  2  0  0  0  0
 25 26  1  0  0  0  0
 25 42  1  0  0  0  0
 26 27  2  0  0  0  0
 26 43  1  0  0  0  0
 27 28  1  0  0  0  0
 27 44  1  0  0  0  0
M  END
$$$$
ZINC51068851
 OpenBabel01252620473D

 40 40  0  0  0  0  0  0  0  0999 V2000
    2.0449   -1.4992   -2.0443 C   0  0  0  0  0  0  0  0  0  0  0  0
    1.0175   -1.4375   -1.0018 N   0  0  0  0  0  0  0  0  0  0  0  0
   -0.1016   -2.2120   -1.1182 C   0  0  0  0  0  0  0  0  0  0  0  0
   -1.0816   -2.1462   -0.1125 C   0  0  0  0  0  0  0  0  0  0  0  0
   -0.8448   -1.2393    1.0183 C   0  0  0  0  0  0  0  0  0  0  0  0
   -1.6590   -1.1422    1.9179 O   0  0  0  0  0  0  0  0  0  0  0  0
    0.2941   -0.5166    1.0393 N   0  0  0  0  0  0  0  0  0  0  0  0
    1.1972   -0.6252    0.0514 C   0  0  0  0  0  0  0  0  0  0  0  0
    2.2128    0.0401    0.1110 O   0  0  0  0  0  0  0  0  0  0  0  0
    0.5515    0.3945    2.1573 C   0  0  0  0  0  0  0  0  0  0  0  0
   -2.2568   -2.9271   -0.1872 C   0  0  0  0  0  0  0  0  0  0  0  0
   -3.4615   -2.3261   -0.2781 O   0  5  0  0  0  0  0  0  0  0  0  0
   -2.1712   -4.3277   -0.1670 C   0  0  0  0  0  0  0  0  0  0  0  0
   -0.9081   -4.9646    0.0559 C   0  0  0  0  0  0  0  0  0  0  0  0
    0.0939   -5.4699    0.2327 N   0  0  0  0  0  0  0  0  0  0  0  0
   -3.3270   -5.1066   -0.3657 C   0  0  0  0  0  0  0  0  0  0  0  0
   -4.3988   -4.5661   -0.5548 O   0  0  0  0  0  0  0  0  0  0  0  0
   -3.2350   -6.6107   -0.3440 C   0  0  0  0  0  0  0  0  0  0  0  0
   -4.6221   -7.2100   -0.5838 C   0  0  0  0  0  0  0  0  0  0  0  0
   -4.5349   -8.6362   -0.5631 O   0  0  0  0  0  0  0  0  0  0  0  0
   -5.7829   -9.2980   -0.7784 C   0  0  0  0  0  0  0  0  0  0  0  0
   -5.5710  -10.8127   -0.7357 C   0  0  0  0  0  0  0  0  0  0  0  0
   -5.0596  -11.1769    0.5145 F   0  0  0  0  0  0  0  0  0  0  0  0
   -6.7929  -11.4606   -0.9465 F   0  0  0  0  0  0  0  0  0  0  0  0
   -4.6668  -11.1854   -1.7361 F   0  0  0  0  0  0  0  0  0  0  0  0
   -0.2654   -3.0337   -2.1907 N   0  0  0  0  0  0  0  0  0  0  0  0
    2.8626   -0.8253   -1.7889 H   0  0  0  0  0  0  0  0  0  0  0  0
    2.4242   -2.5182   -2.1208 H   0  0  0  0  0  0  0  0  0  0  0  0
    1.6122   -1.1999   -2.9990 H   0  0  0  0  0  0  0  0  0  0  0  0
   -0.2796    0.3501    2.8611 H   0  0  0  0  0  0  0  0  0  0  0  0
    1.4713    0.0993    2.6622 H   0  0  0  0  0  0  0  0  0  0  0  0
    0.6545    1.4121    1.7804 H   0  0  0  0  0  0  0  0  0  0  0  0
   -2.5546   -6.9444   -1.1274 H   0  0  0  0  0  0  0  0  0  0  0  0
   -2.8606   -6.9378    0.6261 H   0  0  0  0  0  0  0  0  0  0  0  0
   -5.3025   -6.8762    0.1997 H   0  0  0  0  0  0  0  0  0  0  0  0
   -4.9965   -6.8829   -1.5538 H   0  0  0  0  0  0  0  0  0  0  0  0
   -6.4874   -9.0076    0.0009 H   0  0  0  0  0  0  0  0  0  0  0  0
   -6.1814   -9.0142   -1.7525 H   0  0  0  0  0  0  0  0  0  0  0  0
    0.3809   -3.0220   -2.9139 H   0  0  0  0  0  0  0  0  0  0  0  0
   -1.0285   -3.6311   -2.2319 H   0  0  0  0  0  0  0  0  0  0  0  0
  1  2  1  0  0  0  0
  1 27  1  0  0  0  0
  1 28  1  0  0  0  0
  1 29  1  0  0  0  0
  2  8  1  0  0  0  0
  2  3  1  0  0  0  0
  3  4  2  0  0  0  0
  3 26  1  0  0  0  0
  4  5  1  0  0  0  0
  4 11  1  0  0  0  0
  5  6  2  0  0  0  0
  5  7  1  0  0  0  0
  7  8  1  0  0  0  0
  7 10  1  0  0  0  0
  8  9  2  0  0  0  0
 10 30  1  0  0  0  0
 10 31  1  0  0  0  0
 10 32  1  0  0  0  0
 11 12  1  0  0  0  0
 11 13  2  0  0  0  0
 13 14  1  0  0  0  0
 13 16  1  0  0  0  0
 14 15  3  0  0  0  0
 16 17  2  0  0  0  0
 16 18  1  0  0  0  0
 18 19  1  0  0  0  0
 18 33  1  0  0  0  0
 18 34  1  0  0  0  0
 19 20  1  0  0  0  0
 19 35  1  0  0  0  0
 19 36  1  0  0  0  0
 20 21  1  0  0  0  0
 21 22  1  0  0  0  0
 21 37  1  0  0  0  0
 21 38  1  0  0  0  0
 22 23  1  0  0  0  0
 22 24  1  0  0  0  0
 22 25  1  0  0  0  0
 26 39  1  0  0  0  0
 26 40  1  0  0  0  0
M  CHG  1  12  -1
M  END
$$$$
ZINC40358588
 OpenBabel01252620473D

 50 51  0  0  1  0  0  0  0  0999 V2000
    0.3220    2.4658    0.6704 C   0  0  0  0  0  0  0  0  0  0  0  0
    0.5035    1.0288    0.1775 C   0  0  0  0  0  0  0  0  0  0  0  0
    1.4562    1.0167   -1.0196 C   0  0  0  0  0  0  0  0  0  0  0  0
    1.0882    0.1735    1.3033 C   0  0  0  0  0  0  0  0  0  0  0  0
    0.0959    0.0848    2.4340 C   0  0  0  0  0  0  0  0  0  0  0  0
   -1.0147    0.5571    2.3052 O   0  0  0  0  0  0  0  0  0  0  0  0
    0.4590   -0.5491    3.6459 C   0  0  0  0  0  0  0  0  0  0  0  0
   -0.3055   -0.6627    4.7601 C   0  0  0  0  0  0  0  0  0  0  0  0
    0.4544   -1.3966    5.7961 C   0  0  0  0  0  0  0  0  0  0  0  0
    0.0420   -1.6597    6.9080 O   0  0  0  0  0  0  0  0  0  0  0  0
    1.6696   -1.7294    5.3244 N   0  0  0  0  0  0  0  0  0  0  0  0
    1.7709   -1.2358    3.9461 C   0  0  1  0  0  0  0  0  0  0  0  0
    2.5931   -0.5249    3.8647 H   0  0  0  0  0  0  0  0  0  0  0  0
    1.9832   -2.3854    2.9951 C   0  0  0  0  0  0  0  0  0  0  0  0
    0.8995   -2.9775    2.3747 C   0  0  0  0  0  0  0  0  0  0  0  0
    1.0909   -4.0316    1.5024 C   0  0  0  0  0  0  0  0  0  0  0  0
    2.3727   -4.4985    1.2471 C   0  0  0  0  0  0  0  0  0  0  0  0
    3.4613   -3.9064    1.8681 C   0  0  0  0  0  0  0  0  0  0  0  0
    3.2671   -2.8450    2.7388 C   0  0  0  0  0  0  0  0  0  0  0  0
    4.3329   -2.2585    3.3446 O   0  0  0  0  0  0  0  0  0  0  0  0
    2.5603   -5.5357    0.3893 O   0  0  0  0  0  0  0  0  0  0  0  0
    2.7068   -2.4610    6.0559 C   0  0  0  0  0  0  0  0  0  0  0  0
    2.4502   -3.9647    5.9372 C   0  0  0  0  0  0  0  0  0  0  0  0
    3.4659   -4.7244    6.7928 C   0  0  0  0  0  0  0  0  0  0  0  0
    3.2262   -6.1288    6.6820 O   0  0  0  0  0  0  0  0  0  0  0  0
    4.1254   -6.9341    7.4470 C   0  0  0  0  0  0  0  0  0  0  0  0
   -1.5609   -0.1823    4.9017 O   0  5  0  0  0  0  0  0  0  0  0  0
    1.2880    2.8716    0.9707 H   0  0  0  0  0  0  0  0  0  0  0  0
   -0.0946    3.0751   -0.1317 H   0  0  0  0  0  0  0  0  0  0  0  0
   -0.3567    2.4744    1.5232 H   0  0  0  0  0  0  0  0  0  0  0  0
   -0.4625    0.6230   -0.1229 H   0  0  0  0  0  0  0  0  0  0  0  0
    2.4222    1.4225   -0.7193 H   0  0  0  0  0  0  0  0  0  0  0  0
    1.5855   -0.0070   -1.3708 H   0  0  0  0  0  0  0  0  0  0  0  0
    1.0396    1.6261   -1.8217 H   0  0  0  0  0  0  0  0  0  0  0  0
    1.3003   -0.8272    0.9267 H   0  0  0  0  0  0  0  0  0  0  0  0
    2.0104    0.6289    1.6641 H   0  0  0  0  0  0  0  0  0  0  0  0
   -0.0987   -2.6157    2.5724 H   0  0  0  0  0  0  0  0  0  0  0  0
    0.2423   -4.4928    1.0191 H   0  0  0  0  0  0  0  0  0  0  0  0
    4.4595   -4.2684    1.6707 H   0  0  0  0  0  0  0  0  0  0  0  0
    4.6061   -2.6911    4.1651 H   0  0  0  0  0  0  0  0  0  0  0  0
    2.6880   -5.2670   -0.5308 H   0  0  0  0  0  0  0  0  0  0  0  0
    3.6839   -2.2248    5.6343 H   0  0  0  0  0  0  0  0  0  0  0  0
    2.6844   -2.1703    7.1061 H   0  0  0  0  0  0  0  0  0  0  0  0
    1.4419   -4.1897    6.2847 H   0  0  0  0  0  0  0  0  0  0  0  0
    2.5521   -4.2696    4.8957 H   0  0  0  0  0  0  0  0  0  0  0  0
    4.4742   -4.4994    6.4453 H   0  0  0  0  0  0  0  0  0  0  0  0
    3.3640   -4.4195    7.8343 H   0  0  0  0  0  0  0  0  0  0  0  0
    5.1474   -6.7549    7.1131 H   0  0  0  0  0  0  0  0  0  0  0  0
    4.0371   -6.6750    8.5021 H   0  0  0  0  0  0  0  0  0  0  0  0
    3.8774   -7.9865    7.3093 H   0  0  0  0  0  0  0  0  0  0  0  0
  1  2  1  0  0  0  0
  1 28  1  0  0  0  0
  1 29  1  0  0  0  0
  1 30  1  0  0  0  0
  2  3  1  0  0  0  0
  2  4  1  0  0  0  0
  2 31  1  0  0  0  0
  3 32  1  0  0  0  0
  3 33  1  0  0  0  0
  3 34  1  0  0  0  0
  4  5  1  0  0  0  0
  4 35  1  0  0  0  0
  4 36  1  0  0  0  0
  5  6  2  0  0  0  0
  5  7  1  0  0  0  0
  7 12  1  0  0  0  0
  7  8  2  0  0  0  0
  8  9  1  0  0  0  0
  8 27  1  0  0  0  0
  9 10  2  0  0  0  0
  9 11  1  0  0  0  0
 11 12  1  0  0  0  0
 11 22  1  0  0  0  0
 12 13  1  6  0  0  0
 12 14  1  0  0  0  0
 14 19  2  0  0  0  0
 14 15  1  0  0  0  0
 15 16  2  0  0  0  0
 15 37  1  0  0  0  0
 16 17  1  0  0  0  0
 16 38  1  0  0  0  0
 17 18  2  0  0  0  0
 17 21  1  0  0  0  0
 18 19  1  0  0  0  0
 18 39  1  0  0  0  0
 19 20  1  0  0  0  0
 20 40  1  0  0  0  0
 21 41  1  0  0  0  0
 22 23  1  0  0  0  0
 22 42  1  0  0  0  0
 22 43  1  0  0  0  0
 23 24  1  0  0  0  0
 23 44  1  0  0  0  0
 23 45  1  0  0  0  0
 24 25  1  0  0  0  0
 24 46  1  0  0  0  0
 24 47  1  0  0  0  0
 25 26  1  0  0  0  0
 26 48  1  0  0  0  0
 26 49  1  0  0  0  0
 26 50  1  0  0  0  0
M  CHG  1  27  -1
M  END
$$$$
ZINC39703900
 OpenBabel01252620473D

 52 53  0  0  1  0  0  0  0  0999 V2000
   -0.6481   -1.7143    2.9222 C   0  0  0  0  0  0  0  0  0  0  0  0
    0.5357   -0.9036    3.4536 C   0  0  0  0  0  0  0  0  0  0  0  0
    1.7840   -1.2846    2.7002 C   0  0  0  0  0  0  0  0  0  0  0  0
    2.5918   -2.2082    3.1837 C   0  0  0  0  0  0  0  0  0  0  0  0
    3.9151   -2.3684    1.9985 S   0  0  0  0  0  0  0  0  0  0  0  0
    3.1439   -1.4490    0.6004 C   0  0  2  0  0  0  0  0  0  0  0  0
    3.8673   -0.8086    0.0958 H   0  0  0  0  0  0  0  0  0  0  0  0
    2.1064   -0.6208    1.4002 C   0  0  2  0  0  0  0  0  0  0  0  0
    1.1941   -0.5208    0.8122 H   0  0  0  0  0  0  0  0  0  0  0  0
    2.6736    0.7492    1.6696 C   0  0  0  0  0  0  0  0  0  0  0  0
    3.3527    0.9397    2.6506 O   0  0  0  0  0  0  0  0  0  0  0  0
    2.4242    1.7577    0.8197 O   0  0  0  0  0  0  0  0  0  0  0  0
    2.9935    3.0294    1.1371 C   0  0  0  0  0  0  0  0  0  0  0  0
    2.6031    4.0457    0.0621 C   0  0  0  0  0  0  0  0  0  0  0  0
    2.4878   -2.3575   -0.3432 N   0  0  0  0  0  0  0  0  0  0  0  0
    3.0485   -2.6017   -1.5441 C   0  0  0  0  0  0  0  0  0  0  0  0
    4.0963   -2.0694   -1.8437 O   0  0  0  0  0  0  0  0  0  0  0  0
    2.3736   -3.5363   -2.5148 C   0  0  0  0  0  0  0  0  0  0  0  0
    3.3667   -3.6568   -4.0280 S   0  0  0  0  0  0  0  0  0  0  0  0
    2.4570   -4.7696   -5.0473 C   0  0  0  0  0  0  0  0  0  0  0  0
    2.9179   -5.0813   -6.2527 N   0  0  0  0  0  0  0  0  0  0  0  0
    2.2278   -5.9209   -7.0169 C   0  0  0  0  0  0  0  0  0  0  0  0
    2.6741   -6.2575   -8.2514 O   0  5  0  0  0  0  0  0  0  0  0  0
    1.0344   -6.4495   -6.5230 C   0  0  0  0  0  0  0  0  0  0  0  0
    0.6266   -6.1026   -5.3167 N   0  0  0  0  0  0  0  0  0  0  0  0
    1.3213   -5.2909   -4.5991 N   0  0  0  0  0  0  0  0  0  0  0  0
    0.2207   -7.4049   -7.3574 C   0  0  0  0  0  0  0  0  0  0  0  0
    0.6714   -8.8395   -7.0753 C   0  0  0  0  0  0  0  0  0  0  0  0
   -0.1423   -9.7949   -7.9098 C   0  0  0  0  0  0  0  0  0  0  0  0
   -1.0029   -9.3679   -8.6605 O   0  0  0  0  0  0  0  0  0  0  0  0
    0.0599  -10.9948   -7.8341 O   0  0  0  0  0  1  0  0  0  0  0  0
    2.4303   -2.9712    4.4731 C   0  0  0  0  0  0  0  0  0  0  0  0
   -0.4251   -2.7782    3.0024 H   0  0  0  0  0  0  0  0  0  0  0  0
   -1.5380   -1.4844    3.5081 H   0  0  0  0  0  0  0  0  0  0  0  0
   -0.8245   -1.4577    1.8776 H   0  0  0  0  0  0  0  0  0  0  0  0
    0.3388    0.1596    3.3164 H   0  0  0  0  0  0  0  0  0  0  0  0
    0.6731   -1.1138    4.5143 H   0  0  0  0  0  0  0  0  0  0  0  0
    2.6202    3.3631    2.1053 H   0  0  0  0  0  0  0  0  0  0  0  0
    4.0792    2.9417    1.1770 H   0  0  0  0  0  0  0  0  0  0  0  0
    2.9765    3.7119   -0.9061 H   0  0  0  0  0  0  0  0  0  0  0  0
    1.5174    4.1334    0.0222 H   0  0  0  0  0  0  0  0  0  0  0  0
    3.0374    5.0156    0.3042 H   0  0  0  0  0  0  0  0  0  0  0  0
    1.6498   -2.7832   -0.1036 H   0  0  0  0  0  0  0  0  0  0  0  0
    2.2791   -4.5236   -2.0626 H   0  0  0  0  0  0  0  0  0  0  0  0
    1.3832   -3.1526   -2.7597 H   0  0  0  0  0  0  0  0  0  0  0  0
   -0.8345   -7.2993   -7.1055 H   0  0  0  0  0  0  0  0  0  0  0  0
    0.3664   -7.1794   -8.4138 H   0  0  0  0  0  0  0  0  0  0  0  0
    1.7266   -8.9451   -7.3272 H   0  0  0  0  0  0  0  0  0  0  0  0
    0.5257   -9.0650   -6.0189 H   0  0  0  0  0  0  0  0  0  0  0  0
    1.8587   -3.8807    4.2879 H   0  0  0  0  0  0  0  0  0  0  0  0
    3.4127   -3.2332    4.8658 H   0  0  0  0  0  0  0  0  0  0  0  0
    1.9025   -2.3518    5.1982 H   0  0  0  0  0  0  0  0  0  0  0  0
  1  2  1  0  0  0  0
  1 33  1  0  0  0  0
  1 34  1  0  0  0  0
  1 35  1  0  0  0  0
  2  3  1  0  0  0  0
  2 36  1  0  0  0  0
  2 37  1  0  0  0  0
  3  8  1  0  0  0  0
  3  4  2  0  0  0  0
  4  5  1  0  0  0  0
  4 32  1  0  0  0  0
  5  6  1  0  0  0  0
  6  7  1  6  0  0  0
  6  8  1  0  0  0  0
  6 15  1  0  0  0  0
  8  9  1  6  0  0  0
  8 10  1  0  0  0  0
 10 11  2  0  0  0  0
 10 12  1  0  0  0  0
 12 13  1  0  0  0  0
 13 14  1  0  0  0  0
 13 38  1  0  0  0  0
 13 39  1  0  0  0  0
 14 40  1  0  0  0  0
 14 41  1  0  0  0  0
 14 42  1  0  0  0  0
 15 16  1  0  0  0  0
 15 43  1  0  0  0  0
 16 17  2  0  0  0  0
 16 18  1  0  0  0  0
 18 19  1  0  0  0  0
 18 44  1  0  0  0  0
 18 45  1  0  0  0  0
 19 20  1  0  0  0  0
 20 21  2  0  0  0  0
 20 26  1  0  0  0  0
 21 22  1  0  0  0  0
 22 23  1  0  0  0  0
 22 24  2  0  0  0  0
 24 25  1  0  0  0  0
 24 27  1  0  0  0  0
 25 26  2  0  0  0  0
 27 28  1  0  0  0  0
 27 46  1  0  0  0  0
 27 47  1  0  0  0  0
 28 29  1  0  0  0  0
 28 48  1  0  0  0  0
 28 49  1  0  0  0  0
 29 30  2  0  0  0  0
 29 31  1  0  0  0  0
 32 50  1  0  0  0  0
 32 51  1  0  0  0  0
 32 52  1  0  0  0  0
M  CHG  1  23  -1
M  END
$$$$
ZINC02733009
 OpenBabel01252620473D

 47 50  0  0  1  0  0  0  0  0999 V2000
    0.0910    2.3229    0.1239 C   0  0  0  0  0  0  0  0  0  0  0  0
    0.2726    0.8315    0.0070 C   0  0  0  0  0  0  0  0  0  0  0  0
    0.3873    0.1291   -1.1445 C   0  0  0  0  0  0  0  0  0  0  0  0
    0.5401   -1.2214   -0.8113 C   0  0  0  0  0  0  0  0  0  0  0  0
    0.5178   -1.3259    0.4928 N   0  0  0  0  0  0  0  0  0  0  0  0
    0.3559   -0.0434    1.0324 N   0  0  0  0  0  0  0  0  0  0  0  0
    0.2863    0.2897    2.4574 C   0  0  0  0  0  0  0  0  0  0  0  0
   -1.1480    0.2351    2.9165 C   0  0  0  0  0  0  0  0  0  0  0  0
   -2.0257   -0.0536    2.1309 O   0  0  0  0  0  0  0  0  0  0  0  0
   -1.4554    0.5071    4.2003 N   0  0  0  0  0  0  0  0  0  0  0  0
   -2.8497    0.4541    4.6466 C   0  0  1  0  0  0  0  0  0  0  0  0
   -3.4606   -0.2083    4.0333 H   0  0  0  0  0  0  0  0  0  0  0  0
   -2.9932    0.1938    6.1370 C   0  0  2  0  0  0  0  0  0  0  0  0
   -3.7816   -0.5008    6.4269 H   0  0  0  0  0  0  0  0  0  0  0  0
   -3.3326    1.6480    6.1744 N   0  0  0  0  0  0  0  0  0  0  0  0
   -3.4657    1.8211    4.8451 C   0  0  0  0  0  0  0  0  0  0  0  0
   -3.8936    2.6937    4.1194 O   0  0  0  0  0  0  0  0  0  0  0  0
   -3.3124    2.4761    7.3162 C   0  0  0  0  0  0  0  0  0  0  0  0
   -2.6221    2.1221    8.3893 C   0  0  0  0  0  0  0  0  0  0  0  0
   -1.8396    0.8706    8.6207 C   0  0  0  0  0  0  0  0  0  0  0  0
   -1.4280    0.0058    7.0560 S   0  0  0  0  0  0  0  0  0  0  0  0
   -2.6258    3.1116    9.5259 C   0  0  0  0  0  0  0  0  0  0  0  0
   -3.7867    2.5585   10.8053 S   0  0  0  0  0  0  0  0  0  0  0  0
   -3.6771    3.8034   12.0474 C   0  0  0  0  0  0  0  0  0  0  0  0
   -2.9184    4.8775   12.0126 N   0  0  0  0  0  0  0  0  0  0  0  0
   -3.0785    5.5758   13.0784 N   0  0  0  0  0  0  0  0  0  0  0  0
   -3.9349    5.0117   13.8594 N   0  0  0  0  0  0  0  0  0  0  0  0
   -4.3623    3.8378   13.2146 N   0  0  0  0  0  0  0  0  0  0  0  0
   -5.3380    2.8598   13.7024 C   0  0  0  0  0  0  0  0  0  0  0  0
   -4.0631    3.7422    7.3146 C   0  0  0  0  0  0  0  0  0  0  0  0
   -3.5429    4.7614    6.8817 O   0  0  0  0  0  0  0  0  0  0  0  0
   -5.2075    3.7753    7.7462 O   0  0  0  0  0  1  0  0  0  0  0  0
    0.3505    0.7871   -2.7505 Cl  0  0  0  0  0  0  0  0  0  0  0  0
    1.0673    2.8050    0.1737 H   0  0  0  0  0  0  0  0  0  0  0  0
   -0.4525    2.6920   -0.7459 H   0  0  0  0  0  0  0  0  0  0  0  0
   -0.4732    2.5505    1.0283 H   0  0  0  0  0  0  0  0  0  0  0  0
    0.6557   -2.0368   -1.5100 H   0  0  0  0  0  0  0  0  0  0  0  0
    0.8778   -0.4268    3.0273 H   0  0  0  0  0  0  0  0  0  0  0  0
    0.6805    1.2936    2.6155 H   0  0  0  0  0  0  0  0  0  0  0  0
   -0.7535    0.7381    4.8286 H   0  0  0  0  0  0  0  0  0  0  0  0
   -0.9164    1.1208    9.1434 H   0  0  0  0  0  0  0  0  0  0  0  0
   -2.4263    0.1953    9.2434 H   0  0  0  0  0  0  0  0  0  0  0  0
   -1.6241    3.1815    9.9500 H   0  0  0  0  0  0  0  0  0  0  0  0
   -2.9325    4.0897    9.1553 H   0  0  0  0  0  0  0  0  0  0  0  0
   -4.8247    2.0927   14.2822 H   0  0  0  0  0  0  0  0  0  0  0  0
   -6.0715    3.3620   14.3332 H   0  0  0  0  0  0  0  0  0  0  0  0
   -5.8437    2.3972   12.8549 H   0  0  0  0  0  0  0  0  0  0  0  0
  1  2  1  0  0  0  0
  1 34  1  0  0  0  0
  1 35  1  0  0  0  0
  1 36  1  0  0  0  0
  2  6  1  0  0  0  0
  2  3  2  0  0  0  0
  3  4  1  0  0  0  0
  3 33  1  0  0  0  0
  4  5  2  0  0  0  0
  4 37  1  0  0  0  0
  5  6  1  0  0  0  0
  6  7  1  0  0  0  0
  7  8  1  0  0  0  0
  7 38  1  0  0  0  0
  7 39  1  0  0  0  0
  8  9  2  0  0  0  0
  8 10  1  0  0  0  0
 10 11  1  0  0  0  0
 10 40  1  0  0  0  0
 11 12  1  6  0  0  0
 11 16  1  0  0  0  0
 11 13  1  0  0  0  0
 13 14  1  1  0  0  0
 13 21  1  0  0  0  0
 13 15  1  0  0  0  0
 15 16  1  0  0  0  0
 15 18  1  0  0  0  0
 16 17  2  0  0  0  0
 18 19  2  0  0  0  0
 18 30  1  0  0  0  0
 19 20  1  0  0  0  0
 19 22  1  0  0  0  0
 20 21  1  0  0  0  0
 20 41  1  0  0  0  0
 20 42  1  0  0  0  0
 22 23  1  0  0  0  0
 22 43  1  0  0  0  0
 22 44  1  0  0  0  0
 23 24  1  0  0  0  0
 24 28  1  0  0  0  0
 24 25  2  0  0  0  0
 25 26  1  0  0  0  0
 26 27  2  0  0  0  0
 27 28  1  0  0  0  0
 28 29  1  0  0  0  0
 29 45  1  0  0  0  0
 29 46  1  0  0  0  0
 29 47  1  0  0  0  0
 30 31  2  0  0  0  0
 30 32  1  0  0  0  0
M  END
$$$$
ZINC35970035
 OpenBabel01252620473D

 66 69  0  0  1  0  0  0  0  0999 V2000
   -0.0276    1.5532    0.2101 C   0  0  0  0  0  0  0  0  0  0  0  0
   -0.0198    0.0472    0.1559 C   0  0  0  0  0  0  0  0  0  0  0  0
   -1.2155   -0.6451    0.1418 C   0  0  0  0  0  0  0  0  0  0  0  0
   -1.1553   -2.1553    0.0865 C   0  0  2  0  0  0  0  0  0  0  0  0
   -1.6816   -2.5442    0.9581 H   0  0  0  0  0  0  0  0  0  0  0  0
    0.1949   -2.7779    0.0515 N   0  0  0  0  0  0  0  0  0  0  0  0
    0.4872   -4.1263   -0.0005 C   0  0  0  0  0  0  0  0  0  0  0  0
    1.7898   -4.4849   -0.0259 C   0  0  0  0  0  0  0  0  0  0  0  0
    2.6086   -2.9032    0.0243 S   0  0  0  0  0  0  0  0  0  0  0  0
    1.2537   -1.9137    0.0731 C   0  0  0  0  0  0  0  0  0  0  0  0
    1.1319   -0.6029    0.1167 N   0  0  0  0  0  0  0  0  0  0  0  0
   -0.5808   -5.1360   -0.0269 C   0  0  0  0  0  0  0  0  0  0  0  0
   -0.2736   -6.4438    0.0691 C   0  0  0  0  0  0  0  0  0  0  0  0
    1.0024   -6.8233    0.3237 O   0  5  0  0  0  0  0  0  0  0  0  0
   -1.2613   -7.4007   -0.0923 N   0  0  0  0  0  0  0  0  0  0  0  0
   -0.9094   -8.8228   -0.0992 C   0  0  0  0  0  0  0  0  0  0  0  0
   -2.1540   -9.6546   -0.4154 C   0  0  0  0  0  0  0  0  0  0  0  0
   -1.7864  -11.1398   -0.4226 C   0  0  0  0  0  0  0  0  0  0  0  0
   -2.9814  -11.9385   -0.7263 N   0  0  0  0  0  0  0  0  0  0  0  0
   -3.9725  -11.8355    0.3546 C   0  0  0  0  0  0  0  0  0  0  0  0
   -5.2224  -12.6323   -0.0287 C   0  0  0  0  0  0  0  0  0  0  0  0
   -4.8536  -13.9876   -0.2978 O   0  0  0  0  0  0  0  0  0  0  0  0
   -3.8901  -14.1249   -1.3458 C   0  0  0  0  0  0  0  0  0  0  0  0
   -2.6268  -13.3432   -0.9757 C   0  0  0  0  0  0  0  0  0  0  0  0
   -1.9045   -2.6048   -1.1414 C   0  0  0  0  0  0  0  0  0  0  0  0
   -1.3411   -2.4387   -2.3930 C   0  0  0  0  0  0  0  0  0  0  0  0
   -2.0261   -2.8495   -3.5202 C   0  0  0  0  0  0  0  0  0  0  0  0
   -3.2802   -3.4295   -3.3954 C   0  0  0  0  0  0  0  0  0  0  0  0
   -3.8431   -3.5955   -2.1383 C   0  0  0  0  0  0  0  0  0  0  0  0
   -3.1518   -3.1877   -1.0139 C   0  0  0  0  0  0  0  0  0  0  0  0
   -3.9562   -3.8340   -4.5027 O   0  0  0  0  0  0  0  0  0  0  0  0
   -5.2422   -4.4229   -4.2987 C   0  0  0  0  0  0  0  0  0  0  0  0
   -2.4421    0.0291    0.1780 C   0  0  0  0  0  0  0  0  0  0  0  0
   -2.4671    1.2467    0.2228 O   0  0  0  0  0  0  0  0  0  0  0  0
   -3.5983   -0.6705    0.1632 O   0  0  0  0  0  0  0  0  0  0  0  0
   -4.8124    0.0821    0.2022 C   0  0  0  0  0  0  0  0  0  0  0  0
    0.9981    1.9221    0.2092 H   0  0  0  0  0  0  0  0  0  0  0  0
   -0.5555    1.9453   -0.6592 H   0  0  0  0  0  0  0  0  0  0  0  0
   -0.5309    1.8815    1.1195 H   0  0  0  0  0  0  0  0  0  0  0  0
    2.2223   -5.4737   -0.0656 H   0  0  0  0  0  0  0  0  0  0  0  0
   -1.6118   -4.8291   -0.1233 H   0  0  0  0  0  0  0  0  0  0  0  0
   -2.1863   -7.1294   -0.2008 H   0  0  0  0  0  0  0  0  0  0  0  0
   -0.1482   -9.0051   -0.8578 H   0  0  0  0  0  0  0  0  0  0  0  0
   -0.5221   -9.1060    0.8795 H   0  0  0  0  0  0  0  0  0  0  0  0
   -2.9152   -9.4724    0.3431 H   0  0  0  0  0  0  0  0  0  0  0  0
   -2.5412   -9.3714   -1.3942 H   0  0  0  0  0  0  0  0  0  0  0  0
   -1.0252  -11.3221   -1.1812 H   0  0  0  0  0  0  0  0  0  0  0  0
   -1.3992  -11.4230    0.5561 H   0  0  0  0  0  0  0  0  0  0  0  0
   -3.5510  -12.2401    1.2748 H   0  0  0  0  0  0  0  0  0  0  0  0
   -4.2397  -10.7895    0.5050 H   0  0  0  0  0  0  0  0  0  0  0  0
   -5.9372  -12.6060    0.7937 H   0  0  0  0  0  0  0  0  0  0  0  0
   -5.6743  -12.1944   -0.9188 H   0  0  0  0  0  0  0  0  0  0  0  0
   -3.6414  -15.1781   -1.4758 H   0  0  0  0  0  0  0  0  0  0  0  0
   -4.3033  -13.7305   -2.2741 H   0  0  0  0  0  0  0  0  0  0  0  0
   -1.9115  -13.3979   -1.7964 H   0  0  0  0  0  0  0  0  0  0  0  0
   -2.1837  -13.7720   -0.0768 H   0  0  0  0  0  0  0  0  0  0  0  0
   -0.3648   -1.9871   -2.4897 H   0  0  0  0  0  0  0  0  0  0  0  0
   -1.5859   -2.7189   -4.4977 H   0  0  0  0  0  0  0  0  0  0  0  0
   -4.8192   -4.0467   -2.0385 H   0  0  0  0  0  0  0  0  0  0  0  0
   -3.5877   -3.3207   -0.0348 H   0  0  0  0  0  0  0  0  0  0  0  0
   -5.1400   -5.3122   -3.6767 H   0  0  0  0  0  0  0  0  0  0  0  0
   -5.8957   -3.7054   -3.8023 H   0  0  0  0  0  0  0  0  0  0  0  0
   -5.6717   -4.7001   -5.2613 H   0  0  0  0  0  0  0  0  0  0  0  0
   -5.6630   -0.5993    0.1852 H   0  0  0  0  0  0  0  0  0  0  0  0
   -4.8418    0.6773    1.1148 H   0  0  0  0  0  0  0  0  0  0  0  0
   -4.8585    0.7424   -0.6639 H   0  0  0  0  0  0  0  0  0  0  0  0
  1  2  1  0  0  0  0
  1 37  1  0  0  0  0
  1 38  1  0  0  0  0
  1 39  1  0  0  0  0
  2 11  1  0  0  0  0
  2  3  2  0  0  0  0
  3  4  1  0  0  0  0
  3 33  1  0  0  0  0
  4  5  1  1  0  0  0
  4  6  1  0  0  0  0
  4 25  1  0  0  0  0
  6 10  1  0  0  0  0
  6  7  1  0  0  0  0
  7  8  2  0  0  0  0
  7 12  1  0  0  0  0
  8  9  1  0  0  0  0
  8 40  1  0  0  0  0
  9 10  1  0  0  0  0
 10 11  2  0  0  0  0
 12 13  2  0  0  0  0
 12 41  1  0  0  0  0
 13 14  1  0  0  0  0
 13 15  1  0  0  0  0
 15 16  1  0  0  0  0
 15 42  1  0  0  0  0
 16 17  1  0  0  0  0
 16 43  1  0  0  0  0
 16 44  1  0  0  0  0
 17 18  1  0  0  0  0
 17 45  1  0  0  0  0
 17 46  1  0  0  0  0
 18 19  1  0  0  0  0
 18 47  1  0  0  0  0
 18 48  1  0  0  0  0
 19 24  1  0  0  0  0
 19 20  1  0  0  0  0
 20 21  1  0  0  0  0
 20 49  1  0  0  0  0
 20 50  1  0  0  0  0
 21 22  1  0  0  0  0
 21 51  1  0  0  0  0
 21 52  1  0  0  0  0
 22 23  1  0  0  0  0
 23 24  1  0  0  0  0
 23 53  1  0  0  0  0
 23 54  1  0  0  0  0
 24 55  1  0  0  0  0
 24 56  1  0  0  0  0
 25 30  2  0  0  0  0
 25 26  1  0  0  0  0
 26 27  2  0  0  0  0
 26 57  1  0  0  0  0
 27 28  1  0  0  0  0
 27 58  1  0  0  0  0
 28 29  2  0  0  0  0
 28 31  1  0  0  0  0
 29 30  1  0  0  0  0
 29 59  1  0  0  0  0
 30 60  1  0  0  0  0
 31 32  1  0  0  0  0
 32 61  1  0  0  0  0
 32 62  1  0  0  0  0
 32 63  1  0  0  0  0
 33 34  2  0  0  0  0
 33 35  1  0  0  0  0
 35 36  1  0  0  0  0
 36 64  1  0  0  0  0
 36 65  1  0  0  0  0
 36 66  1  0  0  0  0
M  CHG  1  14  -1
M  END
$$$$
ZINC50428691
 OpenBabel01252620473D

 29 30  0  0  1  0  0  0  0  0999 V2000
   -0.0184    1.5028    0.0103 C   0  0  0  0  0  0  0  0  0  0  0  0
    0.0021   -0.0041    0.0020 C   0  0  0  0  0  0  0  0  0  0  0  0
    0.0057   -0.6863   -1.2005 C   0  0  0  0  0  0  0  0  0  0  0  0
    0.0244   -2.0658   -1.2164 C   0  0  0  0  0  0  0  0  0  0  0  0
    0.0401   -2.7777   -0.0148 C   0  0  0  0  0  0  0  0  0  0  0  0
    0.0369   -2.0889    1.1984 C   0  0  0  0  0  0  0  0  0  0  0  0
    0.0230   -0.7028    1.2030 C   0  0  0  0  0  0  0  0  0  0  0  0
    0.0245   -0.0070    2.4173 N   0  0  0  0  0  0  0  0  0  0  0  0
   -1.1860    0.3827    3.1500 C   0  0  0  0  0  0  0  0  0  0  0  0
   -0.7121    0.7131    4.5827 C   0  0  1  0  0  0  0  0  0  0  0  0
   -0.7848   -0.1616    5.2290 H   0  0  0  0  0  0  0  0  0  0  0  0
    0.7649    1.1036    4.3441 C   0  0  0  0  0  0  0  0  0  0  0  0
    1.1350    0.3851    3.0653 C   0  0  0  0  0  0  0  0  0  0  0  0
    2.2688    0.1931    2.6796 O   0  0  0  0  0  0  0  0  0  0  0  0
   -1.4908    1.8694    5.1551 C   0  0  0  0  0  0  0  0  0  0  0  0
   -1.8381    1.8515    6.3237 O   0  0  0  0  0  0  0  0  0  0  0  0
   -1.7735    2.8228    4.4496 O   0  0  0  0  0  1  0  0  0  0  0  0
    0.0591   -4.2095   -0.0281 C   0  0  0  0  0  0  0  0  0  0  0  0
    0.0741   -5.3453   -0.0387 N   0  0  0  0  0  0  0  0  0  0  0  0
    1.0042    1.8801    0.0026 H   0  0  0  0  0  0  0  0  0  0  0  0
   -0.5455    1.8639   -0.8728 H   0  0  0  0  0  0  0  0  0  0  0  0
   -0.5286    1.8543    0.9071 H   0  0  0  0  0  0  0  0  0  0  0  0
   -0.0064   -0.1375   -2.1306 H   0  0  0  0  0  0  0  0  0  0  0  0
    0.0265   -2.5950   -2.1578 H   0  0  0  0  0  0  0  0  0  0  0  0
    0.0490   -2.6338    2.1308 H   0  0  0  0  0  0  0  0  0  0  0  0
   -1.6386    1.2614    2.6904 H   0  0  0  0  0  0  0  0  0  0  0  0
   -1.8976   -0.4427    3.1689 H   0  0  0  0  0  0  0  0  0  0  0  0
    0.8591    2.1825    4.2210 H   0  0  0  0  0  0  0  0  0  0  0  0
    1.3890    0.7567    5.1677 H   0  0  0  0  0  0  0  0  0  0  0  0
  1  2  1  0  0  0  0
  1 20  1  0  0  0  0
  1 21  1  0  0  0  0
  1 22  1  0  0  0  0
  2  7  2  0  0  0  0
  2  3  1  0  0  0  0
  3  4  2  0  0  0  0
  3 23  1  0  0  0  0
  4  5  1  0  0  0  0
  4 24  1  0  0  0  0
  5  6  2  0  0  0  0
  5 18  1  0  0  0  0
  6  7  1  0  0  0  0
  6 25  1  0  0  0  0
  7  8  1  0  0  0  0
  8 13  1  0  0  0  0
  8  9  1  0  0  0  0
  9 10  1  0  0  0  0
  9 26  1  0  0  0  0
  9 27  1  0  0  0  0
 10 11  1  1  0  0  0
 10 12  1  0  0  0  0
 10 15  1  0  0  0  0
 12 13  1  0  0  0  0
 12 28  1  0  0  0  0
 12 29  1  0  0  0  0
 13 14  2  0  0  0  0
 15 16  2  0  0  0  0
 15 17  1  0  0  0  0
 18 19  3  0  0  0  0
M  END
$$$$
ZINC40077596
 OpenBabel01252620473D

 61 63  0  0  1  0  0  0  0  0999 V2000
   -6.6565   -6.2777    0.4315 C   0  0  0  0  0  0  0  0  0  0  0  0
   -5.1476   -6.0430    0.3363 C   0  0  0  0  0  0  0  0  0  0  0  0
   -4.5062   -6.5946    1.4880 O   0  0  0  0  0  0  0  0  0  0  0  0
   -3.1568   -6.4706    1.5603 C   0  0  0  0  0  0  0  0  0  0  0  0
   -2.4528   -5.9230    0.4936 C   0  0  0  0  0  0  0  0  0  0  0  0
   -1.0839   -5.7954    0.5628 C   0  0  0  0  0  0  0  0  0  0  0  0
   -0.4015   -6.2171    1.7080 C   0  0  0  0  0  0  0  0  0  0  0  0
   -1.1133   -6.7668    2.7786 C   0  0  0  0  0  0  0  0  0  0  0  0
   -2.4826   -6.8863    2.7031 C   0  0  0  0  0  0  0  0  0  0  0  0
    1.0664   -6.0827    1.7864 C   0  0  0  0  0  0  0  0  0  0  0  0
    1.6753   -5.5272    0.8909 O   0  0  0  0  0  0  0  0  0  0  0  0
    1.7910   -6.6184    2.9432 C   0  0  0  0  0  0  0  0  0  0  0  0
    2.0729   -7.9192    3.1873 C   0  0  0  0  0  0  0  0  0  0  0  0
    2.8173   -8.0244    4.4598 C   0  0  0  0  0  0  0  0  0  0  0  0
    3.2136   -9.0620    4.9521 O   0  0  0  0  0  0  0  0  0  0  0  0
    2.9912   -6.8012    4.9924 N   0  0  0  0  0  0  0  0  0  0  0  0
    2.3724   -5.8238    4.0893 C   0  0  2  0  0  0  0  0  0  0  0  0
    3.1225   -5.1253    3.7185 H   0  0  0  0  0  0  0  0  0  0  0  0
    1.2792   -5.0772    4.8094 C   0  0  0  0  0  0  0  0  0  0  0  0
    0.6534   -5.6499    5.9000 C   0  0  0  0  0  0  0  0  0  0  0  0
   -0.3498   -4.9658    6.5608 C   0  0  0  0  0  0  0  0  0  0  0  0
   -0.7295   -3.7069    6.1325 C   0  0  0  0  0  0  0  0  0  0  0  0
   -0.1067   -3.1298    5.0430 C   0  0  0  0  0  0  0  0  0  0  0  0
    0.9042   -3.8122    4.3813 C   0  0  0  0  0  0  0  0  0  0  0  0
    1.5223   -3.2443    3.3125 O   0  0  0  0  0  0  0  0  0  0  0  0
    1.1557   -1.9015    2.9891 C   0  0  0  0  0  0  0  0  0  0  0  0
    1.8698   -1.4730    1.7057 C   0  0  0  0  0  0  0  0  0  0  0  0
    3.6817   -6.4980    6.2484 C   0  0  0  0  0  0  0  0  0  0  0  0
    5.1664   -6.2566    5.9688 C   0  0  0  0  0  0  0  0  0  0  0  0
    5.3152   -5.0856    5.1634 O   0  0  0  0  0  0  0  0  0  0  0  0
    6.6713   -4.7691    4.8428 C   0  0  0  0  0  0  0  0  0  0  0  0
    6.7102   -3.5045    3.9826 C   0  0  0  0  0  0  0  0  0  0  0  0
    6.2331   -2.3944    4.7456 O   0  0  0  0  0  0  0  0  0  0  0  0
    1.7281   -8.9586    2.3926 O   0  5  0  0  0  0  0  0  0  0  0  0
   -7.0434   -5.7951    1.3289 H   0  0  0  0  0  0  0  0  0  0  0  0
   -7.1457   -5.8570   -0.4470 H   0  0  0  0  0  0  0  0  0  0  0  0
   -6.8553   -7.3484    0.4802 H   0  0  0  0  0  0  0  0  0  0  0  0
   -4.7607   -6.5257   -0.5611 H   0  0  0  0  0  0  0  0  0  0  0  0
   -4.9488   -4.9724    0.2876 H   0  0  0  0  0  0  0  0  0  0  0  0
   -2.9807   -5.5975   -0.3907 H   0  0  0  0  0  0  0  0  0  0  0  0
   -0.5378   -5.3706   -0.2665 H   0  0  0  0  0  0  0  0  0  0  0  0
   -0.5900   -7.0937    3.6650 H   0  0  0  0  0  0  0  0  0  0  0  0
   -3.0336   -7.3071    3.5312 H   0  0  0  0  0  0  0  0  0  0  0  0
    0.9481   -6.6329    6.2365 H   0  0  0  0  0  0  0  0  0  0  0  0
   -0.8382   -5.4154    7.4127 H   0  0  0  0  0  0  0  0  0  0  0  0
   -1.5138   -3.1746    6.6501 H   0  0  0  0  0  0  0  0  0  0  0  0
   -0.4036   -2.1467    4.7088 H   0  0  0  0  0  0  0  0  0  0  0  0
    0.0773   -1.8450    2.8411 H   0  0  0  0  0  0  0  0  0  0  0  0
    1.4457   -1.2392    3.8048 H   0  0  0  0  0  0  0  0  0  0  0  0
    1.6605   -0.4218    1.5071 H   0  0  0  0  0  0  0  0  0  0  0  0
    2.9443   -1.6135    1.8235 H   0  0  0  0  0  0  0  0  0  0  0  0
    1.5135   -2.0782    0.8721 H   0  0  0  0  0  0  0  0  0  0  0  0
    3.2463   -5.6046    6.6959 H   0  0  0  0  0  0  0  0  0  0  0  0
    3.5730   -7.3379    6.9347 H   0  0  0  0  0  0  0  0  0  0  0  0
    5.6960   -6.1189    6.9115 H   0  0  0  0  0  0  0  0  0  0  0  0
    5.5811   -7.1156    5.4412 H   0  0  0  0  0  0  0  0  0  0  0  0
    7.2321   -4.6005    5.7622 H   0  0  0  0  0  0  0  0  0  0  0  0
    7.1172   -5.5972    4.2919 H   0  0  0  0  0  0  0  0  0  0  0  0
    7.7349   -3.3130    3.6642 H   0  0  0  0  0  0  0  0  0  0  0  0
    6.0771   -3.6417    3.1060 H   0  0  0  0  0  0  0  0  0  0  0  0
    6.2299   -1.5571    4.2620 H   0  0  0  0  0  0  0  0  0  0  0  0
  1  2  1  0  0  0  0
  1 35  1  0  0  0  0
  1 36  1  0  0  0  0
  1 37  1  0  0  0  0
  2  3  1  0  0  0  0
  2 38  1  0  0  0  0
  2 39  1  0  0  0  0
  3  4  1  0  0  0  0
  4  9  2  0  0  0  0
  4  5  1  0  0  0  0
  5  6  2  0  0  0  0
  5 40  1  0  0  0  0
  6  7  1  0  0  0  0
  6 41  1  0  0  0  0
  7  8  2  0  0  0  0
  7 10  1  0  0  0  0
  8  9  1  0  0  0  0
  8 42  1  0  0  0  0
  9 43  1  0  0  0  0
 10 11  2  0  0  0  0
 10 12  1  0  0  0  0
 12 17  1  0  0  0  0
 12 13  2  0  0  0  0
 13 14  1  0  0  0  0
 13 34  1  0  0  0  0
 14 15  2  0  0  0  0
 14 16  1  0  0  0  0
 16 17  1  0  0  0  0
 16 28  1  0  0  0  0
 17 18  1  6  0  0  0
 17 19  1  0  0  0  0
 19 24  2  0  0  0  0
 19 20  1  0  0  0  0
 20 21  2  0  0  0  0
 20 44  1  0  0  0  0
 21 22  1  0  0  0  0
 21 45  1  0  0  0  0
 22 23  2  0  0  0  0
 22 46  1  0  0  0  0
 23 24  1  0  0  0  0
 23 47  1  0  0  0  0
 24 25  1  0  0  0  0
 25 26  1  0  0  0  0
 26 27  1  0  0  0  0
 26 48  1  0  0  0  0
 26 49  1  0  0  0  0
 27 50  1  0  0  0  0
 27 51  1  0  0  0  0
 27 52  1  0  0  0  0
 28 29  1  0  0  0  0
 28 53  1  0  0  0  0
 28 54  1  0  0  0  0
 29 30  1  0  0  0  0
 29 55  1  0  0  0  0
 29 56  1  0  0  0  0
 30 31  1  0  0  0  0
 31 32  1  0  0  0  0
 31 57  1  0  0  0  0
 31 58  1  0  0  0  0
 32 33  1  0  0  0  0
 32 59  1  0  0  0  0
 32 60  1  0  0  0  0
 33 61  1  0  0  0  0
M  CHG  1  34  -1
M  END
$$$$
ZINC35420141
 OpenBabel01252620473D

 59 63  0  0  1  0  0  0  0  0999 V2000
    2.4487    0.6562   -3.8597 C   0  0  0  0  0  0  0  0  0  0  0  0
    1.9739   -0.7498   -3.5974 C   0  0  0  0  0  0  0  0  0  0  0  0
    0.7634   -1.1058   -3.0165 C   0  0  0  0  0  0  0  0  0  0  0  0
    0.7445   -2.4880   -2.9701 N   0  0  0  0  0  0  0  0  0  0  0  0
   -0.1762   -3.3771   -2.5120 C   0  0  0  0  0  0  0  0  0  0  0  0
    0.0552   -4.7085   -2.5849 C   0  0  0  0  0  0  0  0  0  0  0  0
    1.2518   -5.1848   -3.1365 C   0  0  0  0  0  0  0  0  0  0  0  0
    2.1803   -4.2990   -3.5988 C   0  0  0  0  0  0  0  0  0  0  0  0
    1.9209   -2.9204   -3.5134 C   0  0  0  0  0  0  0  0  0  0  0  0
    2.6347   -1.8575   -3.8855 N   0  0  0  0  0  0  0  0  0  0  0  0
   -0.2507   -0.2272   -2.5611 C   0  0  0  0  0  0  0  0  0  0  0  0
   -0.1279    1.2178   -2.7912 C   0  0  0  0  0  0  0  0  0  0  0  0
    0.2416    2.2652   -1.7669 C   0  0  1  0  0  0  0  0  0  0  0  0
    1.2358    2.0648   -1.3675 H   0  0  0  0  0  0  0  0  0  0  0  0
    0.2321    3.5503   -2.4760 N   0  0  0  0  0  0  0  0  0  0  0  0
   -0.0990    3.3117   -3.7580 C   0  0  0  0  0  0  0  0  0  0  0  0
   -0.1985    4.1607   -4.6219 O   0  0  0  0  0  0  0  0  0  0  0  0
   -0.3179    1.8670   -3.9620 C   0  0  0  0  0  0  0  0  0  0  0  0
   -0.6583    1.2835   -5.1361 O   0  5  0  0  0  0  0  0  0  0  0  0
    0.5294    4.8603   -1.8914 C   0  0  0  0  0  0  0  0  0  0  0  0
    2.0049    5.1417   -2.0136 C   0  0  0  0  0  0  0  0  0  0  0  0
    2.8795    4.7513   -1.0108 C   0  0  0  0  0  0  0  0  0  0  0  0
    4.2284    5.0311   -1.1659 C   0  0  0  0  0  0  0  0  0  0  0  0
    4.6537    5.6852   -2.3069 C   0  0  0  0  0  0  0  0  0  0  0  0
    3.7932    6.0421   -3.2400 N   0  0  0  0  0  0  0  0  0  0  0  0
    2.5041    5.7869   -3.1289 C   0  0  0  0  0  0  0  0  0  0  0  0
   -0.7724    2.2807   -0.6522 C   0  0  0  0  0  0  0  0  0  0  0  0
   -2.0263    2.8229   -0.8664 C   0  0  0  0  0  0  0  0  0  0  0  0
   -2.9587    2.8386    0.1541 C   0  0  0  0  0  0  0  0  0  0  0  0
   -2.6395    2.3126    1.3913 C   0  0  0  0  0  0  0  0  0  0  0  0
   -1.3824    1.7681    1.6087 C   0  0  0  0  0  0  0  0  0  0  0  0
   -0.4504    1.7481    0.5809 C   0  0  0  0  0  0  0  0  0  0  0  0
   -1.0660    1.2501    2.8246 O   0  0  0  0  0  0  0  0  0  0  0  0
   -2.0767    1.2994    3.8336 C   0  0  0  0  0  0  0  0  0  0  0  0
   -1.5487    0.6840    5.1039 C   0  0  0  0  0  0  0  0  0  0  0  0
   -1.7502    1.2794    6.2532 C   0  0  0  0  0  0  0  0  0  0  0  0
   -1.2255   -0.6711   -1.9780 O   0  0  0  0  0  0  0  0  0  0  0  0
    2.0388    1.0074   -4.8066 H   0  0  0  0  0  0  0  0  0  0  0  0
    2.1132    1.3092   -3.0540 H   0  0  0  0  0  0  0  0  0  0  0  0
    3.5376    0.6689   -3.9081 H   0  0  0  0  0  0  0  0  0  0  0  0
   -1.1009   -3.0175   -2.0855 H   0  0  0  0  0  0  0  0  0  0  0  0
   -0.6836   -5.4051   -2.2169 H   0  0  0  0  0  0  0  0  0  0  0  0
    1.4380   -6.2470   -3.1950 H   0  0  0  0  0  0  0  0  0  0  0  0
    3.1066   -4.6538   -4.0258 H   0  0  0  0  0  0  0  0  0  0  0  0
   -0.0323    5.6302   -2.4204 H   0  0  0  0  0  0  0  0  0  0  0  0
    0.2453    4.8615   -0.8391 H   0  0  0  0  0  0  0  0  0  0  0  0
    2.5184    4.2417   -0.1297 H   0  0  0  0  0  0  0  0  0  0  0  0
    4.9379    4.7419   -0.4047 H   0  0  0  0  0  0  0  0  0  0  0  0
    5.7029    5.9069   -2.4353 H   0  0  0  0  0  0  0  0  0  0  0  0
    1.8301    6.0899   -3.9165 H   0  0  0  0  0  0  0  0  0  0  0  0
   -2.2775    3.2352   -1.8325 H   0  0  0  0  0  0  0  0  0  0  0  0
   -3.9374    3.2626   -0.0156 H   0  0  0  0  0  0  0  0  0  0  0  0
   -3.3681    2.3257    2.1884 H   0  0  0  0  0  0  0  0  0  0  0  0
    0.5274    1.3204    0.7463 H   0  0  0  0  0  0  0  0  0  0  0  0
   -2.3534    2.3371    4.0204 H   0  0  0  0  0  0  0  0  0  0  0  0
   -2.9527    0.7446    3.4979 H   0  0  0  0  0  0  0  0  0  0  0  0
   -1.0042   -0.2480    5.0667 H   0  0  0  0  0  0  0  0  0  0  0  0
   -2.2947    2.2113    6.2904 H   0  0  0  0  0  0  0  0  0  0  0  0
   -1.3719    0.8383    7.1636 H   0  0  0  0  0  0  0  0  0  0  0  0
  1  2  1  0  0  0  0
  1 38  1  0  0  0  0
  1 39  1  0  0  0  0
  1 40  1  0  0  0  0
  2 10  1  0  0  0  0
  2  3  2  0  0  0  0
  3  4  1  0  0  0  0
  3 11  1  0  0  0  0
  4  9  1  0  0  0  0
  4  5  1  0  0  0  0
  5  6  2  0  0  0  0
  5 41  1  0  0  0  0
  6  7  1  0  0  0  0
  6 42  1  0  0  0  0
  7  8  2  0  0  0  0
  7 43  1  0  0  0  0
  8  9  1  0  0  0  0
  8 44  1  0  0  0  0
  9 10  2  0  0  0  0
 11 12  1  0  0  0  0
 11 37  2  0  0  0  0
 12 18  2  0  0  0  0
 12 13  1  0  0  0  0
 13 15  1  0  0  0  0
 13 27  1  0  0  0  0
 13 14  1  1  0  0  0
 15 20  1  0  0  0  0
 15 16  1  0  0  0  0
 16 17  2  0  0  0  0
 16 18  1  0  0  0  0
 18 19  1  0  0  0  0
 20 21  1  0  0  0  0
 20 45  1  0  0  0  0
 20 46  1  0  0  0  0
 21 26  2  0  0  0  0
 21 22  1  0  0  0  0
 22 23  2  0  0  0  0
 22 47  1  0  0  0  0
 23 24  1  0  0  0  0
 23 48  1  0  0  0  0
 24 25  2  0  0  0  0
 24 49  1  0  0  0  0
 25 26  1  0  0  0  0
 26 50  1  0  0  0  0
 27 32  2  0  0  0  0
 27 28  1  0  0  0  0
 28 29  2  0  0  0  0
 28 51  1  0  0  0  0
 29 30  1  0  0  0  0
 29 52  1  0  0  0  0
 30 31  2  0  0  0  0
 30 53  1  0  0  0  0
 31 32  1  0  0  0  0
 31 33  1  0  0  0  0
 32 54  1  0  0  0  0
 33 34  1  0  0  0  0
 34 35  1  0  0  0  0
 34 55  1  0  0  0  0
 34 56  1  0  0  0  0
 35 36  2  0  0  0  0
 35 57  1  0  0  0  0
 36 58  1  0  0  0  0
 36 59  1  0  0  0  0
M  CHG  1  19  -1
M  END
$$$$
ZINC54670678
 OpenBabel01252620473D

 39 42  0  0  1  0  0  0  0  0999 V2000
   -0.7819    0.9453   -0.3138 C   0  0  0  0  0  0  0  0  0  0  0  0
   -0.4378   -0.3322   -0.0912 C   0  0  0  0  0  0  0  0  0  0  0  0
   -1.4381   -1.3304    0.3262 C   0  0  0  0  0  0  0  0  0  0  0  0
   -1.0910   -2.6360    0.3336 C   0  0  0  0  0  0  0  0  0  0  0  0
   -2.0034   -3.5739    0.6822 O   0  5  0  0  0  0  0  0  0  0  0  0
    0.1887   -3.0182   -0.0127 N   0  0  0  0  0  0  0  0  0  0  0  0
    1.0977   -2.1018   -0.4746 C   0  0  0  0  0  0  0  0  0  0  0  0
    0.8886   -0.7676   -0.2536 N   0  0  0  0  0  0  0  0  0  0  0  0
    2.1399   -2.5084   -1.1693 N   0  0  0  0  0  0  0  0  0  0  0  0
    2.3048   -3.8097   -1.4635 C   0  0  0  0  0  0  0  0  0  0  0  0
    1.5853   -4.7424   -0.9014 N   0  0  0  0  0  0  0  0  0  0  0  0
    0.6129   -4.4147    0.1447 C   0  0  1  0  0  0  0  0  0  0  0  0
   -0.2530   -5.0707    0.0554 H   0  0  0  0  0  0  0  0  0  0  0  0
    1.2482   -4.5984    1.4989 C   0  0  0  0  0  0  0  0  0  0  0  0
    2.2448   -5.5446    1.6842 C   0  0  0  0  0  0  0  0  0  0  0  0
    2.8005   -5.6789    2.9472 C   0  0  0  0  0  0  0  0  0  0  0  0
    2.3459   -4.8709    3.9724 C   0  0  0  0  0  0  0  0  0  0  0  0
    1.3958   -3.9817    3.7596 N   0  0  0  0  0  0  0  0  0  0  0  0
    0.8488   -3.8223    2.5701 C   0  0  0  0  0  0  0  0  0  0  0  0
    3.2649   -4.1708   -2.3894 N   0  0  0  0  0  2  0  0  0  0  0  0
    4.2971   -3.2831   -2.7087 C   0  0  0  0  0  0  0  0  0  0  0  0
    4.7175   -2.3411   -1.7787 C   0  0  0  0  0  0  0  0  0  0  0  0
    5.7372   -1.4658   -2.0972 C   0  0  0  0  0  0  0  0  0  0  0  0
    6.3393   -1.5264   -3.3407 C   0  0  0  0  0  0  0  0  0  0  0  0
    5.9231   -2.4631   -4.2689 C   0  0  0  0  0  0  0  0  0  0  0  0
    4.9081   -3.3453   -3.9545 C   0  0  0  0  0  0  0  0  0  0  0  0
   -0.0338    1.6600   -0.6236 H   0  0  0  0  0  0  0  0  0  0  0  0
   -1.8079    1.2581   -0.1874 H   0  0  0  0  0  0  0  0  0  0  0  0
   -2.4308   -1.0238    0.6212 H   0  0  0  0  0  0  0  0  0  0  0  0
    2.5799   -6.1625    0.8643 H   0  0  0  0  0  0  0  0  0  0  0  0
    3.5785   -6.4058    3.1278 H   0  0  0  0  0  0  0  0  0  0  0  0
    2.7736   -4.9692    4.9592 H   0  0  0  0  0  0  0  0  0  0  0  0
    0.0766   -3.0799    2.4329 H   0  0  0  0  0  0  0  0  0  0  0  0
    4.2473   -2.2928   -0.8076 H   0  0  0  0  0  0  0  0  0  0  0  0
    6.0646   -0.7331   -1.3745 H   0  0  0  0  0  0  0  0  0  0  0  0
    7.1360   -0.8403   -3.5875 H   0  0  0  0  0  0  0  0  0  0  0  0
    6.3951   -2.5076   -5.2393 H   0  0  0  0  0  0  0  0  0  0  0  0
    4.5868   -4.0798   -4.6781 H   0  0  0  0  0  0  0  0  0  0  0  0
    1.6311   -0.1451   -0.2079 H   0  0  0  0  0  0  0  0  0  0  0  0
  1  2  2  0  0  0  0
  1 27  1  0  0  0  0
  1 28  1  0  0  0  0
  2  8  1  0  0  0  0
  2  3  1  0  0  0  0
  3  4  2  0  0  0  0
  3 29  1  0  0  0  0
  4  5  1  0  0  0  0
  4  6  1  0  0  0  0
  6 12  1  0  0  0  0
  6  7  1  0  0  0  0
  7  8  1  0  0  0  0
  7  9  2  0  0  0  0
  8 39  1  0  0  0  0
  9 10  1  0  0  0  0
 10 11  2  0  0  0  0
 10 20  1  0  0  0  0
 11 12  1  0  0  0  0
 12 13  1  6  0  0  0
 12 14  1  0  0  0  0
 14 19  2  0  0  0  0
 14 15  1  0  0  0  0
 15 16  2  0  0  0  0
 15 30  1  0  0  0  0
 16 17  1  0  0  0  0
 16 31  1  0  0  0  0
 17 18  2  0  0  0  0
 17 32  1  0  0  0  0
 18 19  1  0  0  0  0
 19 33  1  0  0  0  0
 20 21  1  0  0  0  0
 21 26  2  0  0  0  0
 21 22  1  0  0  0  0
 22 23  2  0  0  0  0
 22 34  1  0  0  0  0
 23 24  1  0  0  0  0
 23 35  1  0  0  0  0
 24 25  2  0  0  0  0
 24 36  1  0  0  0  0
 25 26  1  0  0  0  0
 25 37  1  0  0  0  0
 26 38  1  0  0  0  0
M  CHG  1   5  -1
M  END
$$$$
ZINC40046743
 OpenBabel01252620473D

 50 52  0  0  1  0  0  0  0  0999 V2000
    0.0638    1.5493    0.0398 C   0  0  0  0  0  0  0  0  0  0  0  0
    0.0955    0.0198    0.0120 C   0  0  0  0  0  0  0  0  0  0  0  0
    0.7030   -0.4658    1.2109 O   0  0  0  0  0  0  0  0  0  0  0  0
    0.8099   -1.8139    1.3460 C   0  0  0  0  0  0  0  0  0  0  0  0
    0.3450   -2.6518    0.3428 C   0  0  0  0  0  0  0  0  0  0  0  0
    0.4553   -4.0217    0.4824 C   0  0  0  0  0  0  0  0  0  0  0  0
    1.0280   -4.5580    1.6209 C   0  0  0  0  0  0  0  0  0  0  0  0
    1.4916   -3.7250    2.6224 C   0  0  0  0  0  0  0  0  0  0  0  0
    1.3892   -2.3542    2.4849 C   0  0  0  0  0  0  0  0  0  0  0  0
    1.1465   -6.0528    1.7707 C   0  0  2  0  0  0  0  0  0  0  0  0
    0.9018   -6.5442    0.8291 H   0  0  0  0  0  0  0  0  0  0  0  0
    0.2263   -6.5399    2.8656 C   0  0  0  0  0  0  0  0  0  0  0  0
    1.0093   -7.1165    3.8059 C   0  0  0  0  0  0  0  0  0  0  0  0
    2.4209   -7.0333    3.3805 C   0  0  0  0  0  0  0  0  0  0  0  0
    3.3659   -7.4626    4.0124 O   0  0  0  0  0  0  0  0  0  0  0  0
    2.5069   -6.4119    2.1888 N   0  0  0  0  0  0  0  0  0  0  0  0
    3.7381   -6.1415    1.4423 C   0  0  0  0  0  0  0  0  0  0  0  0
    4.2953   -4.7776    1.8545 C   0  0  0  0  0  0  0  0  0  0  0  0
    5.5812   -4.4953    1.0748 C   0  0  0  0  0  0  0  0  0  0  0  0
    6.1017   -3.2213    1.4598 O   0  0  0  0  0  0  0  0  0  0  0  0
    0.5687   -7.6802    4.9552 O   0  5  0  0  0  0  0  0  0  0  0  0
   -1.2353   -6.4117    2.9021 C   0  0  0  0  0  0  0  0  0  0  0  0
   -1.7649   -5.7169    3.7515 O   0  0  0  0  0  0  0  0  0  0  0  0
   -2.0579   -7.1195    1.9168 C   0  0  0  0  0  0  0  0  0  0  0  0
   -3.4242   -7.0108    1.7716 C   0  0  0  0  0  0  0  0  0  0  0  0
   -3.7822   -7.8592    0.7140 C   0  0  0  0  0  0  0  0  0  0  0  0
   -2.6461   -8.4396    0.2651 C   0  0  0  0  0  0  0  0  0  0  0  0
   -1.6117   -7.9891    0.9866 O   0  0  0  0  0  0  0  0  0  0  0  0
   -2.5576   -9.4293   -0.8680 C   0  0  0  0  0  0  0  0  0  0  0  0
    1.0816    1.9325    0.1125 H   0  0  0  0  0  0  0  0  0  0  0  0
   -0.3995    1.9197   -0.8746 H   0  0  0  0  0  0  0  0  0  0  0  0
   -0.5133    1.8851    0.9013 H   0  0  0  0  0  0  0  0  0  0  0  0
   -0.9223   -0.3634   -0.0606 H   0  0  0  0  0  0  0  0  0  0  0  0
    0.6726   -0.3160   -0.8495 H   0  0  0  0  0  0  0  0  0  0  0  0
   -0.1030   -2.2334   -0.5464 H   0  0  0  0  0  0  0  0  0  0  0  0
    0.0936   -4.6745   -0.2984 H   0  0  0  0  0  0  0  0  0  0  0  0
    1.9382   -4.1463    3.5109 H   0  0  0  0  0  0  0  0  0  0  0  0
    1.7556   -1.7039    3.2655 H   0  0  0  0  0  0  0  0  0  0  0  0
    4.4733   -6.9158    1.6616 H   0  0  0  0  0  0  0  0  0  0  0  0
    3.5219   -6.1379    0.3740 H   0  0  0  0  0  0  0  0  0  0  0  0
    3.5601   -4.0033    1.6352 H   0  0  0  0  0  0  0  0  0  0  0  0
    4.5116   -4.7812    2.9228 H   0  0  0  0  0  0  0  0  0  0  0  0
    6.3164   -5.2695    1.2941 H   0  0  0  0  0  0  0  0  0  0  0  0
    5.3650   -4.4917    0.0065 H   0  0  0  0  0  0  0  0  0  0  0  0
    6.9186   -2.9762    1.0042 H   0  0  0  0  0  0  0  0  0  0  0  0
   -4.0889   -6.3936    2.3579 H   0  0  0  0  0  0  0  0  0  0  0  0
   -4.7789   -8.0195    0.3300 H   0  0  0  0  0  0  0  0  0  0  0  0
   -2.4042   -8.8952   -1.8057 H   0  0  0  0  0  0  0  0  0  0  0  0
   -1.7213  -10.1064   -0.6945 H   0  0  0  0  0  0  0  0  0  0  0  0
   -3.4834  -10.0020   -0.9233 H   0  0  0  0  0  0  0  0  0  0  0  0
  1  2  1  0  0  0  0
  1 30  1  0  0  0  0
  1 31  1  0  0  0  0
  1 32  1  0  0  0  0
  2  3  1  0  0  0  0
  2 33  1  0  0  0  0
  2 34  1  0  0  0  0
  3  4  1  0  0  0  0
  4  9  2  0  0  0  0
  4  5  1  0  0  0  0
  5  6  2  0  0  0  0
  5 35  1  0  0  0  0
  6  7  1  0  0  0  0
  6 36  1  0  0  0  0
  7  8  2  0  0  0  0
  7 10  1  0  0  0  0
  8  9  1  0  0  0  0
  8 37  1  0  0  0  0
  9 38  1  0  0  0  0
 10 11  1  6  0  0  0
 10 16  1  0  0  0  0
 10 12  1  0  0  0  0
 12 13  2  0  0  0  0
 12 22  1  0  0  0  0
 13 14  1  0  0  0  0
 13 21  1  0  0  0  0
 14 15  2  0  0  0  0
 14 16  1  0  0  0  0
 16 17  1  0  0  0  0
 17 18  1  0  0  0  0
 17 39  1  0  0  0  0
 17 40  1  0  0  0  0
 18 19  1  0  0  0  0
 18 41  1  0  0  0  0
 18 42  1  0  0  0  0
 19 20  1  0  0  0  0
 19 43  1  0  0  0  0
 19 44  1  0  0  0  0
 20 45  1  0  0  0  0
 22 23  2  0  0  0  0
 22 24  1  0  0  0  0
 24 28  1  0  0  0  0
 24 25  2  0  0  0  0
 25 26  1  0  0  0  0
 25 46  1  0  0  0  0
 26 27  2  0  0  0  0
 26 47  1  0  0  0  0
 27 28  1  0  0  0  0
 27 29  1  0  0  0  0
 29 48  1  0  0  0  0
 29 49  1  0  0  0  0
 29 50  1  0  0  0  0
M  CHG  1  21  -1
M  END
$$$$
ZINC15724173
 OpenBabel01252620473D

 49 52  0  0  1  0  0  0  0  0999 V2000
    3.5568    3.7337   -2.5933 C   0  0  0  0  0  0  0  0  0  0  0  0
    2.8645    4.2673   -3.6640 C   0  0  0  0  0  0  0  0  0  0  0  0
    1.6827    4.9537   -3.4503 C   0  0  0  0  0  0  0  0  0  0  0  0
    1.1916    5.1011   -2.1655 C   0  0  0  0  0  0  0  0  0  0  0  0
    1.8819    4.5626   -1.0960 C   0  0  0  0  0  0  0  0  0  0  0  0
    3.0629    3.8767   -1.3101 C   0  0  0  0  0  0  0  0  0  0  0  0
    3.8156    3.2902   -0.1436 C   0  0  1  0  0  0  0  0  0  0  0  0
    3.3954    3.7023    0.7857 H   0  0  0  0  0  0  0  0  0  0  0  0
    3.7340    1.7817   -0.1810 C   0  0  0  0  0  0  0  0  0  0  0  0
    2.5903    1.0115   -0.1242 C   0  0  0  0  0  0  0  0  0  0  0  0
    1.2892    1.6442    0.1518 C   0  0  0  0  0  0  0  0  0  0  0  0
    1.1405    2.4939    1.2531 C   0  0  0  0  0  0  0  0  0  0  0  0
   -0.0814    3.0777    1.5089 C   0  0  0  0  0  0  0  0  0  0  0  0
   -1.1583    2.8338    0.6715 C   0  0  0  0  0  0  0  0  0  0  0  0
   -1.0183    1.9932   -0.4213 C   0  0  0  0  0  0  0  0  0  0  0  0
    0.1962    1.3980   -0.6859 C   0  0  0  0  0  0  0  0  0  0  0  0
   -2.6921    3.5787    0.9975 Cl  0  0  0  0  0  0  0  0  0  0  0  0
    2.6640   -0.3220   -0.3216 O   0  0  0  0  0  0  0  0  0  0  0  0
    5.0565    1.3217   -0.2852 C   0  0  0  0  0  0  0  0  0  0  0  0
    5.4054    0.1565   -0.3400 O   0  5  0  0  0  0  0  0  0  0  0  0
    5.9578    2.5055   -0.3171 C   0  0  0  0  0  0  0  0  0  0  0  0
    7.1676    2.4566   -0.4051 O   0  0  0  0  0  0  0  0  0  0  0  0
    5.2367    3.6364   -0.2380 N   0  0  0  0  0  0  0  0  0  0  0  0
    5.7829    4.9957   -0.2397 C   0  0  0  0  0  0  0  0  0  0  0  0
    6.0785    5.4283    1.1977 C   0  0  0  0  0  0  0  0  0  0  0  0
    6.6491    6.8480    1.1958 C   0  0  0  0  0  0  0  0  0  0  0  0
    6.9321    7.2624    2.5722 N   0  0  0  0  0  0  0  0  0  0  0  0
    8.1082    7.0824    3.2491 C   0  0  0  0  0  0  0  0  0  0  0  0
    7.9359    7.6091    4.4765 C   0  0  0  0  0  0  0  0  0  0  0  0
    6.6886    8.0972    4.5471 N   0  0  0  0  0  0  0  0  0  0  0  0
    6.0834    7.8984    3.4082 C   0  0  0  0  0  0  0  0  0  0  0  0
    0.7383    5.6896   -4.9139 Br  0  0  0  0  0  0  0  0  0  0  0  0
    4.4817    3.2013   -2.7597 H   0  0  0  0  0  0  0  0  0  0  0  0
    3.2480    4.1516   -4.6669 H   0  0  0  0  0  0  0  0  0  0  0  0
    0.2691    5.6373   -1.9981 H   0  0  0  0  0  0  0  0  0  0  0  0
    1.4985    4.6773   -0.0929 H   0  0  0  0  0  0  0  0  0  0  0  0
    1.9802    2.6884    1.9040 H   0  0  0  0  0  0  0  0  0  0  0  0
   -0.1989    3.7300    2.3615 H   0  0  0  0  0  0  0  0  0  0  0  0
   -1.8631    1.8037   -1.0669 H   0  0  0  0  0  0  0  0  0  0  0  0
    0.3038    0.7428   -1.5377 H   0  0  0  0  0  0  0  0  0  0  0  0
    5.0510    5.6844   -0.6868 H   0  0  0  0  0  0  0  0  0  0  0  0
    6.7125    5.0165   -0.8275 H   0  0  0  0  0  0  0  0  0  0  0  0
    5.1489    5.4075    1.7854 H   0  0  0  0  0  0  0  0  0  0  0  0
    6.8105    4.7396    1.6448 H   0  0  0  0  0  0  0  0  0  0  0  0
    7.5787    6.8689    0.6081 H   0  0  0  0  0  0  0  0  0  0  0  0
    5.9171    7.5368    0.7487 H   0  0  0  0  0  0  0  0  0  0  0  0
    8.9828    6.6651    3.0023 H   0  0  0  0  0  0  0  0  0  0  0  0
    8.6828    7.5832    5.1410 H   0  0  0  0  0  0  0  0  0  0  0  0
    5.1402    8.2061    3.2827 H   0  0  0  0  0  0  0  0  0  0  0  0
  1  6  2  0  0  0  0
  1  2  1  0  0  0  0
  1 33  1  0  0  0  0
  2  3  2  0  0  0  0
  2 34  1  0  0  0  0
  3  4  1  0  0  0  0
  3 32  1  0  0  0  0
  4  5  2  0  0  0  0
  4 35  1  0  0  0  0
  5  6  1  0  0  0  0
  5 36  1  0  0  0  0
  6  7  1  0  0  0  0
  7  9  1  0  0  0  0
  7 23  1  0  0  0  0
  7  8  1  1  0  0  0
  9 19  2  0  0  0  0
  9 10  1  0  0  0  0
 10 18  2  0  0  0  0
 10 11  1  0  0  0  0
 11 16  2  0  0  0  0
 11 12  1  0  0  0  0
 12 13  2  0  0  0  0
 12 37  1  0  0  0  0
 13 14  1  0  0  0  0
 13 38  1  0  0  0  0
 14 15  2  0  0  0  0
 14 17  1  0  0  0  0
 15 16  1  0  0  0  0
 15 39  1  0  0  0  0
 16 40  1  0  0  0  0
 19 21  1  0  0  0  0
 19 20  1  0  0  0  0
 21 23  1  0  0  0  0
 21 22  2  0  0  0  0
 23 24  1  0  0  0  0
 24 25  1  0  0  0  0
 24 41  1  0  0  0  0
 24 42  1  0  0  0  0
 25 26  1  0  0  0  0
 25 43  1  0  0  0  0
 25 44  1  0  0  0  0
 26 27  1  0  0  0  0
 26 45  1  0  0  0  0
 26 46  1  0  0  0  0
 27 31  1  0  0  0  0
 27 28  1  0  0  0  0
 28 29  2  0  0  0  0
 28 47  1  0  0  0  0
 29 30  1  0  0  0  0
 29 48  1  0  0  0  0
 30 31  2  0  0  0  0
 31 49  1  0  0  0  0
M  CHG  1  20  -1
M  END
$$$$
ZINC37417811
 OpenBabel01252620473D

 28 29  0  0  0  0  0  0  0  0999 V2000
   -0.0518    1.5106    0.0755 C   0  0  0  0  0  0  0  0  0  0  0  0
   -0.0085    0.0051    0.0234 C   0  0  0  0  0  0  0  0  0  0  0  0
   -1.1282   -0.7235    0.0021 C   0  0  0  0  0  0  0  0  0  0  0  0
   -0.4827   -2.3846   -0.0573 S   0  0  0  0  0  0  0  0  0  0  0  0
    1.1586   -2.0199   -0.0502 C   0  0  0  0  0  0  0  0  0  0  0  0
    2.1041   -2.7876   -0.0801 O   0  0  0  0  0  0  0  0  0  0  0  0
    1.1755   -0.6713   -0.0096 N   0  0  0  0  0  0  0  0  0  0  0  0
    2.0175   -0.1898   -0.0003 H   0  0  0  0  0  0  0  0  0  0  0  0
   -2.8052   -0.1837    0.0271 S   0  0  0  0  0  0  0  0  0  0  0  0
   -3.4894   -1.0262    0.9443 O   0  0  0  0  0  0  0  0  0  0  0  0
   -2.7748    1.2300    0.1681 O   0  0  0  0  0  0  0  0  0  0  0  0
   -3.4427   -0.4964   -1.4690 N   0  0  0  0  0  2  0  0  0  0  0  0
   -4.7968   -0.2533   -1.7165 C   0  0  0  0  0  0  0  0  0  0  0  0
   -5.5738    0.3776   -0.7586 C   0  0  0  0  0  0  0  0  0  0  0  0
   -6.9262    0.6186   -1.0111 C   0  0  0  0  0  0  0  0  0  0  0  0
   -7.4864    0.2216   -2.2286 C   0  0  0  0  0  0  0  0  0  0  0  0
   -6.7044   -0.4057   -3.1755 C   0  0  0  0  0  0  0  0  0  0  0  0
   -5.3631   -0.6398   -2.9274 C   0  0  0  0  0  0  0  0  0  0  0  0
   -4.3853   -1.4242   -4.1283 Cl  0  0  0  0  0  0  0  0  0  0  0  0
   -7.7603    1.2892    0.0036 C   0  0  0  0  0  0  0  0  0  0  0  0
   -7.2681    1.6354    1.0683 O   0  0  0  0  0  0  0  0  0  0  0  0
   -8.9443    1.4992   -0.2197 O   0  0  0  0  0  1  0  0  0  0  0  0
    0.9649    1.9034    0.0810 H   0  0  0  0  0  0  0  0  0  0  0  0
   -0.5829    1.8891   -0.7979 H   0  0  0  0  0  0  0  0  0  0  0  0
   -0.5689    1.8281    0.9809 H   0  0  0  0  0  0  0  0  0  0  0  0
   -5.1353    0.6817    0.1804 H   0  0  0  0  0  0  0  0  0  0  0  0
   -8.5318    0.4058   -2.4276 H   0  0  0  0  0  0  0  0  0  0  0  0
   -7.1392   -0.7117   -4.1155 H   0  0  0  0  0  0  0  0  0  0  0  0
  1  2  1  0  0  0  0
  1 23  1  0  0  0  0
  1 24  1  0  0  0  0
  1 25  1  0  0  0  0
  2  7  1  0  0  0  0
  2  3  2  0  0  0  0
  3  4  1  0  0  0  0
  3  9  1  0  0  0  0
  4  5  1  0  0  0  0
  5  6  2  0  0  0  0
  5  7  1  0  0  0  0
  7  8  1  0  0  0  0
  9 10  2  0  0  0  0
  9 11  2  0  0  0  0
  9 12  1  0  0  0  0
 12 13  1  0  0  0  0
 13 18  2  0  0  0  0
 13 14  1  0  0  0  0
 14 15  2  0  0  0  0
 14 26  1  0  0  0  0
 15 16  1  0  0  0  0
 15 20  1  0  0  0  0
 16 17  2  0  0  0  0
 16 27  1  0  0  0  0
 17 18  1  0  0  0  0
 17 28  1  0  0  0  0
 18 19  1  0  0  0  0
 20 21  2  0  0  0  0
 20 22  1  0  0  0  0
M  END
$$$$
ZINC39898316
 OpenBabel01252620473D

 65 68  0  0  1  0  0  0  0  0999 V2000
    2.1423   -2.7012   -1.1596 C   0  0  0  0  0  0  0  0  0  0  0  0
    0.9548   -1.8210   -0.7647 C   0  0  0  0  0  0  0  0  0  0  0  0
    0.7030   -0.7828   -1.8600 C   0  0  0  0  0  0  0  0  0  0  0  0
   -0.2909   -2.6924   -0.5920 C   0  0  0  0  0  0  0  0  0  0  0  0
   -1.3708   -1.8897   -0.1110 O   0  0  0  0  0  0  0  0  0  0  0  0
   -2.5600   -2.5156    0.0977 C   0  0  0  0  0  0  0  0  0  0  0  0
   -2.6828   -3.8735   -0.1496 C   0  0  0  0  0  0  0  0  0  0  0  0
   -3.8922   -4.5082    0.0635 C   0  0  0  0  0  0  0  0  0  0  0  0
   -4.9813   -3.7911    0.5229 C   0  0  0  0  0  0  0  0  0  0  0  0
   -4.8657   -2.4361    0.7711 C   0  0  0  0  0  0  0  0  0  0  0  0
   -3.6546   -1.7949    0.5655 C   0  0  0  0  0  0  0  0  0  0  0  0
   -3.5376   -0.4632    0.8149 O   0  0  0  0  0  0  0  0  0  0  0  0
   -4.6889    0.2026    1.3375 C   0  0  0  0  0  0  0  0  0  0  0  0
   -6.2975   -4.4880    0.7530 C   0  0  1  0  0  0  0  0  0  0  0  0
   -6.2678   -5.4933    0.3329 H   0  0  0  0  0  0  0  0  0  0  0  0
   -6.5996   -4.5508    2.2252 C   0  0  0  0  0  0  0  0  0  0  0  0
   -6.2103   -5.0023    3.4909 C   0  0  0  0  0  0  0  0  0  0  0  0
   -7.1194   -4.5914    4.3531 N   0  0  0  0  0  0  0  0  0  0  0  0
   -8.0436   -3.9255    3.7574 N   0  0  0  0  0  0  0  0  0  0  0  0
   -8.8133   -3.5281    4.1939 H   0  0  0  0  0  0  0  0  0  0  0  0
   -7.7809   -3.8606    2.4185 C   0  0  0  0  0  0  0  0  0  0  0  0
   -8.2454   -3.3581    1.1207 C   0  0  0  0  0  0  0  0  0  0  0  0
   -9.2597   -2.7091    0.9502 O   0  0  0  0  0  0  0  0  0  0  0  0
   -7.3903   -3.7180    0.1447 N   0  0  0  0  0  0  0  0  0  0  0  0
   -7.5251   -3.3966   -1.2783 C   0  0  0  0  0  0  0  0  0  0  0  0
   -8.3166   -4.5031   -1.9783 C   0  0  0  0  0  0  0  0  0  0  0  0
   -8.4574   -4.1674   -3.4644 C   0  0  0  0  0  0  0  0  0  0  0  0
   -9.1966   -5.2009   -4.1182 O   0  0  0  0  0  0  0  0  0  0  0  0
   -9.3859   -4.9837   -5.5178 C   0  0  0  0  0  0  0  0  0  0  0  0
   -4.9977   -5.7981    3.8051 C   0  0  0  0  0  0  0  0  0  0  0  0
   -4.1884   -6.2748    2.7770 C   0  0  0  0  0  0  0  0  0  0  0  0
   -3.0608   -7.0150    3.0746 C   0  0  0  0  0  0  0  0  0  0  0  0
   -2.7324   -7.2849    4.3925 C   0  0  0  0  0  0  0  0  0  0  0  0
   -3.5297   -6.8164    5.4193 C   0  0  0  0  0  0  0  0  0  0  0  0
   -4.6601   -6.0674    5.1342 C   0  0  0  0  0  0  0  0  0  0  0  0
   -5.4413   -5.6013    6.1437 O   0  0  0  0  0  0  0  0  0  0  0  0
   -2.0526   -7.6094    1.7924 Cl  0  0  0  0  0  0  0  0  0  0  0  0
    3.0297   -2.0804   -1.2827 H   0  0  0  0  0  0  0  0  0  0  0  0
    2.3216   -3.4409   -0.3793 H   0  0  0  0  0  0  0  0  0  0  0  0
    1.9215   -3.2095   -2.0982 H   0  0  0  0  0  0  0  0  0  0  0  0
    1.1756   -1.3127    0.1739 H   0  0  0  0  0  0  0  0  0  0  0  0
   -0.1429   -0.1557   -1.5787 H   0  0  0  0  0  0  0  0  0  0  0  0
    1.5905   -0.1619   -1.9830 H   0  0  0  0  0  0  0  0  0  0  0  0
    0.4822   -1.2911   -2.7986 H   0  0  0  0  0  0  0  0  0  0  0  0
   -0.5635   -3.1308   -1.5520 H   0  0  0  0  0  0  0  0  0  0  0  0
   -0.0819   -3.4872    0.1241 H   0  0  0  0  0  0  0  0  0  0  0  0
   -1.8338   -4.4358   -0.5091 H   0  0  0  0  0  0  0  0  0  0  0  0
   -3.9866   -5.5666   -0.1296 H   0  0  0  0  0  0  0  0  0  0  0  0
   -5.7181   -1.8781    1.1296 H   0  0  0  0  0  0  0  0  0  0  0  0
   -5.5016    0.1454    0.6134 H   0  0  0  0  0  0  0  0  0  0  0  0
   -4.9957   -0.2775    2.2668 H   0  0  0  0  0  0  0  0  0  0  0  0
   -4.4476    1.2478    1.5310 H   0  0  0  0  0  0  0  0  0  0  0  0
   -8.0512   -2.4483   -1.3883 H   0  0  0  0  0  0  0  0  0  0  0  0
   -6.5355   -3.3174   -1.7282 H   0  0  0  0  0  0  0  0  0  0  0  0
   -7.7905   -5.4514   -1.8683 H   0  0  0  0  0  0  0  0  0  0  0  0
   -9.3062   -4.5824   -1.5284 H   0  0  0  0  0  0  0  0  0  0  0  0
   -8.9835   -3.2192   -3.5744 H   0  0  0  0  0  0  0  0  0  0  0  0
   -7.4678   -4.0882   -3.9143 H   0  0  0  0  0  0  0  0  0  0  0  0
   -9.9313   -4.0523   -5.6705 H   0  0  0  0  0  0  0  0  0  0  0  0
   -8.4156   -4.9214   -6.0104 H   0  0  0  0  0  0  0  0  0  0  0  0
   -9.9554   -5.8116   -5.9403 H   0  0  0  0  0  0  0  0  0  0  0  0
   -4.4422   -6.0662    1.7482 H   0  0  0  0  0  0  0  0  0  0  0  0
   -1.8494   -7.8642    4.6188 H   0  0  0  0  0  0  0  0  0  0  0  0
   -3.2689   -7.0302    6.4453 H   0  0  0  0  0  0  0  0  0  0  0  0
   -6.1467   -6.2079    6.4073 H   0  0  0  0  0  0  0  0  0  0  0  0
  1  2  1  0  0  0  0
  1 38  1  0  0  0  0
  1 39  1  0  0  0  0
  1 40  1  0  0  0  0
  2  3  1  0  0  0  0
  2  4  1  0  0  0  0
  2 41  1  0  0  0  0
  3 42  1  0  0  0  0
  3 43  1  0  0  0  0
  3 44  1  0  0  0  0
  4  5  1  0  0  0  0
  4 45  1  0  0  0  0
  4 46  1  0  0  0  0
  5  6  1  0  0  0  0
  6 11  2  0  0  0  0
  6  7  1  0  0  0  0
  7  8  2  0  0  0  0
  7 47  1  0  0  0  0
  8  9  1  0  0  0  0
  8 48  1  0  0  0  0
  9 10  2  0  0  0  0
  9 14  1  0  0  0  0
 10 11  1  0  0  0  0
 10 49  1  0  0  0  0
 11 12  1  0  0  0  0
 12 13  1  0  0  0  0
 13 50  1  0  0  0  0
 13 51  1  0  0  0  0
 13 52  1  0  0  0  0
 14 15  1  6  0  0  0
 14 24  1  0  0  0  0
 14 16  1  0  0  0  0
 16 21  2  0  0  0  0
 16 17  1  0  0  0  0
 17 18  2  0  0  0  0
 17 30  1  0  0  0  0
 18 19  1  0  0  0  0
 19 20  1  0  0  0  0
 19 21  1  0  0  0  0
 21 22  1  0  0  0  0
 22 23  2  0  0  0  0
 22 24  1  0  0  0  0
 24 25  1  0  0  0  0
 25 26  1  0  0  0  0
 25 53  1  0  0  0  0
 25 54  1  0  0  0  0
 26 27  1  0  0  0  0
 26 55  1  0  0  0  0
 26 56  1  0  0  0  0
 27 28  1  0  0  0  0
 27 57  1  0  0  0  0
 27 58  1  0  0  0  0
 28 29  1  0  0  0  0
 29 59  1  0  0  0  0
 29 60  1  0  0  0  0
 29 61  1  0  0  0  0
 30 35  2  0  0  0  0
 30 31  1  0  0  0  0
 31 32  2  0  0  0  0
 31 62  1  0  0  0  0
 32 33  1  0  0  0  0
 32 37  1  0  0  0  0
 33 34  2  0  0  0  0
 33 63  1  0  0  0  0
 34 35  1  0  0  0  0
 34 64  1  0  0  0  0
 35 36  1  0  0  0  0
 36 65  1  0  0  0  0
M  END
$$$$
ZINC45699890
 OpenBabel01252620473D

 41 41  0  0  1  0  0  0  0  0999 V2000
   -0.0184    1.5028    0.0103 C   0  0  0  0  0  0  0  0  0  0  0  0
    0.0021   -0.0041    0.0020 C   0  0  0  0  0  0  0  0  0  0  0  0
    0.0080   -0.8179   -1.1355 C   0  0  0  0  0  0  0  0  0  0  0  0
    0.0279   -2.1072   -0.7249 C   0  0  0  0  0  0  0  0  0  0  0  0
    0.0343   -2.1090    0.6245 N   0  0  0  0  0  0  0  0  0  0  0  0
    0.0231   -0.7768    1.0576 N   0  0  0  0  0  0  0  0  0  0  0  0
    0.0548   -3.2948    1.4847 C   0  0  0  0  0  0  0  0  0  0  0  0
    1.4825   -3.6816    1.7729 C   0  0  0  0  0  0  0  0  0  0  0  0
    2.3980   -3.0275    1.3033 O   0  0  0  0  0  0  0  0  0  0  0  0
    1.7221   -4.6487    2.4756 O   0  0  0  0  0  1  0  0  0  0  0  0
    0.0401   -3.3230   -1.6152 C   0  0  0  0  0  0  0  0  0  0  0  0
   -0.0085   -0.2626   -2.8076 S   0  0  0  0  0  0  0  0  0  0  0  0
   -0.5486   -1.3241   -3.5827 O   0  0  0  0  0  0  0  0  0  0  0  0
   -0.5776    1.0394   -2.7975 O   0  0  0  0  0  0  0  0  0  0  0  0
    1.5687   -0.0862   -3.2805 N   0  0  0  0  0  0  0  0  0  0  0  0
    2.4430   -1.2585   -3.3669 C   0  0  0  0  0  0  0  0  0  0  0  0
    3.6984   -0.9007   -4.1650 C   0  0  2  0  0  0  0  0  0  0  0  0
    4.1794   -0.0319   -3.7155 H   0  0  0  0  0  0  0  0  0  0  0  0
    3.3099   -0.5781   -5.6093 C   0  0  0  0  0  0  0  0  0  0  0  0
    4.6672   -2.0848   -4.1498 C   0  0  0  0  0  0  0  0  0  0  0  0
    5.8864   -1.7112   -4.7948 O   0  0  0  0  0  0  0  0  0  0  0  0
    6.8652   -2.7515   -4.8350 C   0  0  0  0  0  0  0  0  0  0  0  0
    1.0042    1.8801    0.0026 H   0  0  0  0  0  0  0  0  0  0  0  0
   -0.5455    1.8639   -0.8728 H   0  0  0  0  0  0  0  0  0  0  0  0
   -0.5286    1.8543    0.9071 H   0  0  0  0  0  0  0  0  0  0  0  0
   -0.4577   -3.0734    2.4209 H   0  0  0  0  0  0  0  0  0  0  0  0
   -0.4500   -4.1185    0.9800 H   0  0  0  0  0  0  0  0  0  0  0  0
    1.0706   -3.6020   -1.8350 H   0  0  0  0  0  0  0  0  0  0  0  0
   -0.4598   -4.1489   -1.1091 H   0  0  0  0  0  0  0  0  0  0  0  0
   -0.4816   -3.0976   -2.5453 H   0  0  0  0  0  0  0  0  0  0  0  0
    1.9136    0.7934   -3.5003 H   0  0  0  0  0  0  0  0  0  0  0  0
    2.7282   -1.5739   -2.3633 H   0  0  0  0  0  0  0  0  0  0  0  0
    1.9141   -2.0702   -3.8664 H   0  0  0  0  0  0  0  0  0  0  0  0
    4.2043   -0.3232   -6.1778 H   0  0  0  0  0  0  0  0  0  0  0  0
    2.8289   -1.4468   -6.0588 H   0  0  0  0  0  0  0  0  0  0  0  0
    2.6198    0.2655   -5.6201 H   0  0  0  0  0  0  0  0  0  0  0  0
    4.8746   -2.3713   -3.1188 H   0  0  0  0  0  0  0  0  0  0  0  0
    4.2200   -2.9269   -4.6780 H   0  0  0  0  0  0  0  0  0  0  0  0
    7.7604   -2.3888   -5.3401 H   0  0  0  0  0  0  0  0  0  0  0  0
    7.1182   -3.0519   -3.8182 H   0  0  0  0  0  0  0  0  0  0  0  0
    6.4636   -3.6074   -5.3774 H   0  0  0  0  0  0  0  0  0  0  0  0
  1  2  1  0  0  0  0
  1 23  1  0  0  0  0
  1 24  1  0  0  0  0
  1 25  1  0  0  0  0
  2  6  2  0  0  0  0
  2  3  1  0  0  0  0
  3  4  2  0  0  0  0
  3 12  1  0  0  0  0
  4  5  1  0  0  0  0
  4 11  1  0  0  0  0
  5  6  1  0  0  0  0
  5  7  1  0  0  0  0
  7  8  1  0  0  0  0
  7 26  1  0  0  0  0
  7 27  1  0  0  0  0
  8  9  2  0  0  0  0
  8 10  1  0  0  0  0
 11 28  1  0  0  0  0
 11 29  1  0  0  0  0
 11 30  1  0  0  0  0
 12 13  2  0  0  0  0
 12 14  2  0  0  0  0
 12 15  1  0  0  0  0
 15 16  1  0  0  0  0
 15 31  1  0  0  0  0
 16 17  1  0  0  0  0
 16 32  1  0  0  0  0
 16 33  1  0  0  0  0
 17 18  1  1  0  0  0
 17 19  1  0  0  0  0
 17 20  1  0  0  0  0
 19 34  1  0  0  0  0
 19 35  1  0  0  0  0
 19 36  1  0  0  0  0
 20 21  1  0  0  0  0
 20 37  1  0  0  0  0
 20 38  1  0  0  0  0
 21 22  1  0  0  0  0
 22 39  1  0  0  0  0
 22 40  1  0  0  0  0
 22 41  1  0  0  0  0
M  END
$$$$
ZINC38635009
 OpenBabel01252620473D

 30 29  0  0  1  0  0  0  0  0999 V2000
   -0.0187    1.5258    0.0104 C   0  0  0  0  0  0  0  0  0  0  0  0
    0.0021   -0.0041    0.0020 C   0  0  0  0  0  0  0  0  0  0  0  0
   -1.4333   -0.5336    0.0129 C   0  0  1  0  0  0  0  0  0  0  0  0
   -1.9701   -0.1109    0.8621 H   0  0  0  0  0  0  0  0  0  0  0  0
   -2.1352   -0.1312   -1.2857 C   0  0  0  0  0  0  0  0  0  0  0  0
   -1.4133   -2.0590    0.1302 C   0  0  0  0  0  0  0  0  0  0  0  0
   -2.8458   -2.5789    0.2665 C   0  0  0  0  0  0  0  0  0  0  0  0
   -2.8257   -4.1043    0.3839 C   0  0  0  0  0  0  0  0  0  0  0  0
   -4.2582   -4.6242    0.5202 C   0  0  0  0  0  0  0  0  0  0  0  0
   -4.2395   -6.0488    0.6298 O   0  0  0  0  0  0  0  0  0  0  0  0
   -5.6186   -6.6770    0.7709 S   0  0  0  0  0  0  0  0  0  0  0  0
   -5.4156   -8.0437    1.2258 O   0  0  0  0  0  0  0  0  0  0  0  0
   -6.3470   -5.8819    1.7472 O   0  0  0  0  0  0  0  0  0  0  0  0
   -6.2413   -6.6285   -0.5428 O   0  0  0  0  0  1  0  0  0  0  0  0
    1.0039    1.9031    0.0027 H   0  0  0  0  0  0  0  0  0  0  0  0
   -0.5459    1.8868   -0.8726 H   0  0  0  0  0  0  0  0  0  0  0  0
   -0.5289    1.8773    0.9072 H   0  0  0  0  0  0  0  0  0  0  0  0
    0.5123   -0.3556   -0.8948 H   0  0  0  0  0  0  0  0  0  0  0  0
    0.5293   -0.3651    0.8851 H   0  0  0  0  0  0  0  0  0  0  0  0
   -1.5984   -0.5539   -2.1349 H   0  0  0  0  0  0  0  0  0  0  0  0
   -3.1578   -0.5085   -1.2779 H   0  0  0  0  0  0  0  0  0  0  0  0
   -2.1495    0.9555   -1.3693 H   0  0  0  0  0  0  0  0  0  0  0  0
   -0.9551   -2.4861   -0.7619 H   0  0  0  0  0  0  0  0  0  0  0  0
   -0.8366   -2.3483    1.0088 H   0  0  0  0  0  0  0  0  0  0  0  0
   -3.3039   -2.1519    1.1586 H   0  0  0  0  0  0  0  0  0  0  0  0
   -3.4224   -2.2896   -0.6121 H   0  0  0  0  0  0  0  0  0  0  0  0
   -2.3675   -4.5313   -0.5082 H   0  0  0  0  0  0  0  0  0  0  0  0
   -2.2491   -4.3935    1.2624 H   0  0  0  0  0  0  0  0  0  0  0  0
   -4.7164   -4.1971    1.4122 H   0  0  0  0  0  0  0  0  0  0  0  0
   -4.8348   -4.3349   -0.3584 H   0  0  0  0  0  0  0  0  0  0  0  0
  1  2  1  0  0  0  0
  1 15  1  0  0  0  0
  1 16  1  0  0  0  0
  1 17  1  0  0  0  0
  2  3  1  0  0  0  0
  2 18  1  0  0  0  0
  2 19  1  0  0  0  0
  3  4  1  1  0  0  0
  3  5  1  0  0  0  0
  3  6  1  0  0  0  0
  5 20  1  0  0  0  0
  5 21  1  0  0  0  0
  5 22  1  0  0  0  0
  6  7  1  0  0  0  0
  6 23  1  0  0  0  0
  6 24  1  0  0  0  0
  7  8  1  0  0  0  0
  7 25  1  0  0  0  0
  7 26  1  0  0  0  0
  8  9  1  0  0  0  0
  8 27  1  0  0  0  0
  8 28  1  0  0  0  0
  9 10  1  0  0  0  0
  9 29  1  0  0  0  0
  9 30  1  0  0  0  0
 10 11  1  0  0  0  0
 11 12  2  0  0  0  0
 11 13  2  0  0  0  0
 11 14  1  0  0  0  0
M  END
$$$$
ZINC19624517
 OpenBabel01252620473D

 24 25  0  0  0  0  0  0  0  0999 V2000
   -0.0169    1.3922    0.0097 C   0  0  0  0  0  0  0  0  0  0  0  0
    1.1885    2.0799    0.0019 C   0  0  0  0  0  0  0  0  0  0  0  0
    2.3781    1.3508   -0.0134 C   0  0  0  0  0  0  0  0  0  0  0  0
    2.3842   -0.0416   -0.0209 C   0  0  0  0  0  0  0  0  0  0  0  0
    3.7210   -0.6111   -0.0368 C   0  0  0  0  0  0  0  0  0  0  0  0
    4.7933    0.2730   -0.0423 C   0  0  0  0  0  0  0  0  0  0  0  0
    4.0924    1.7970   -0.0274 S   0  0  0  0  0  0  0  0  0  0  0  0
    6.5108   -0.1204   -0.0603 S   0  0  0  0  0  0  0  0  0  0  0  0
    7.3315    1.4974   -0.0597 C   0  0  0  0  0  0  0  0  0  0  0  0
    8.8486    1.2996   -0.0749 C   0  0  0  0  0  0  0  0  0  0  0  0
    9.5146    2.6123   -0.0744 C   0  0  0  0  0  0  0  0  0  0  0  0
   10.0286    3.6254   -0.0740 N   0  0  0  0  0  0  0  0  0  0  0  0
    3.9255   -2.0284   -0.0459 C   0  0  0  0  0  0  0  0  0  0  0  0
    4.0877   -3.1527   -0.0531 N   0  0  0  0  0  0  0  0  0  0  0  0
    1.1547   -0.6893   -0.0127 N   0  0  0  0  0  0  0  0  0  0  0  0
    1.1297   -1.6589   -0.0176 H   0  0  0  0  0  0  0  0  0  0  0  0
    0.0021   -0.0041    0.0020 C   0  0  0  0  0  0  0  0  0  0  0  0
   -1.0555   -0.6153    0.0088 O   0  0  0  0  0  0  0  0  0  0  0  0
    1.2099    3.4347    0.0085 O   0  5  0  0  0  0  0  0  0  0  0  0
   -0.9543    1.9282    0.0260 H   0  0  0  0  0  0  0  0  0  0  0  0
    7.0294    2.0584   -0.9441 H   0  0  0  0  0  0  0  0  0  0  0  0
    7.0460    2.0493    0.8358 H   0  0  0  0  0  0  0  0  0  0  0  0
    9.1507    0.7386    0.8095 H   0  0  0  0  0  0  0  0  0  0  0  0
    9.1341    0.7476   -0.9704 H   0  0  0  0  0  0  0  0  0  0  0  0
  1 17  1  0  0  0  0
  1  2  2  0  0  0  0
  1 20  1  0  0  0  0
  2  3  1  0  0  0  0
  2 19  1  0  0  0  0
  3  7  1  0  0  0  0
  3  4  2  0  0  0  0
  4  5  1  0  0  0  0
  4 15  1  0  0  0  0
  5  6  2  0  0  0  0
  5 13  1  0  0  0  0
  6  7  1  0  0  0  0
  6  8  1  0  0  0  0
  8  9  1  0  0  0  0
  9 10  1  0  0  0  0
  9 21  1  0  0  0  0
  9 22  1  0  0  0  0
 10 11  1  0  0  0  0
 10 23  1  0  0  0  0
 10 24  1  0  0  0  0
 11 12  3  0  0  0  0
 13 14  3  0  0  0  0
 15 16  1  0  0  0  0
 15 17  1  0  0  0  0
 17 18  2  0  0  0  0
M  CHG  1  19  -1
M  END
$$$$
ZINC17043594
 OpenBabel01252620473D

 48 50  0  0  1  0  0  0  0  0999 V2000
   -0.0173    1.4248    0.0099 C   0  0  0  0  0  0  0  0  0  0  0  0
    0.0021   -0.0041    0.0020 O   0  0  0  0  0  0  0  0  0  0  0  0
    0.6518   -0.5703   -1.1379 C   0  0  0  0  0  0  0  0  0  0  0  0
    0.6131   -2.0967   -1.0411 C   0  0  0  0  0  0  0  0  0  0  0  0
    1.3087   -2.7029   -2.2615 C   0  0  0  0  0  0  0  0  0  0  0  0
    1.2717   -4.1645   -2.1688 N   0  0  0  0  0  0  0  0  0  0  0  0
    2.2757   -4.8161   -1.5438 C   0  0  0  0  0  0  0  0  0  0  0  0
    3.2112   -4.2092   -1.0560 O   0  0  0  0  0  0  0  0  0  0  0  0
    2.2012   -6.2864   -1.4712 C   0  0  0  0  0  0  0  0  0  0  0  0
    3.1900   -7.0320   -0.8471 C   0  0  0  0  0  0  0  0  0  0  0  0
    3.2206   -8.5443   -0.7181 C   0  0  0  0  0  0  0  0  0  0  0  0
    4.6879   -8.8080   -0.3016 C   0  0  1  0  0  0  0  0  0  0  0  0
    5.3072   -9.0252   -1.1719 H   0  0  0  0  0  0  0  0  0  0  0  0
    5.0682   -7.5131    0.3093 N   0  0  0  0  0  0  0  0  0  0  0  0
    4.2931   -6.5434   -0.2546 N   0  0  0  0  0  0  0  0  0  0  0  0
    4.7694   -9.9251    0.7067 C   0  0  0  0  0  0  0  0  0  0  0  0
    4.4865   -9.6760    2.0370 C   0  0  0  0  0  0  0  0  0  0  0  0
    4.5609  -10.6982    2.9633 C   0  0  0  0  0  0  0  0  0  0  0  0
    4.9195  -11.9755    2.5577 C   0  0  0  0  0  0  0  0  0  0  0  0
    5.2025  -12.2229    1.2223 C   0  0  0  0  0  0  0  0  0  0  0  0
    5.1216  -11.1985    0.2990 C   0  0  0  0  0  0  0  0  0  0  0  0
    4.9939  -12.9826    3.4671 O   0  0  0  0  0  0  0  0  0  0  0  0
    5.3693  -14.2718    2.9782 C   0  0  0  0  0  0  0  0  0  0  0  0
    1.0324   -6.9267   -2.0893 C   0  0  0  0  0  0  0  0  0  0  0  0
    0.8878   -8.2683   -2.0664 O   0  5  0  0  0  0  0  0  0  0  0  0
    0.1245   -6.1582   -2.6685 N   0  0  0  0  0  0  0  0  0  0  0  0
    0.2383   -4.8332   -2.7013 C   0  0  0  0  0  0  0  0  0  0  0  0
   -0.6415   -4.1928   -3.2492 O   0  0  0  0  0  0  0  0  0  0  0  0
    1.0053    1.8021    0.0021 H   0  0  0  0  0  0  0  0  0  0  0  0
   -0.5445    1.7859   -0.8732 H   0  0  0  0  0  0  0  0  0  0  0  0
   -0.5275    1.7763    0.9067 H   0  0  0  0  0  0  0  0  0  0  0  0
    0.1385   -0.2506   -2.0447 H   0  0  0  0  0  0  0  0  0  0  0  0
    1.6883   -0.2344   -1.1694 H   0  0  0  0  0  0  0  0  0  0  0  0
    1.1264   -2.4164   -0.1342 H   0  0  0  0  0  0  0  0  0  0  0  0
   -0.4234   -2.4326   -1.0095 H   0  0  0  0  0  0  0  0  0  0  0  0
    0.7954   -2.3833   -3.1684 H   0  0  0  0  0  0  0  0  0  0  0  0
    2.3452   -2.3671   -2.2930 H   0  0  0  0  0  0  0  0  0  0  0  0
    2.5310   -8.8818    0.0555 H   0  0  0  0  0  0  0  0  0  0  0  0
    2.9969   -9.0197   -1.6731 H   0  0  0  0  0  0  0  0  0  0  0  0
    6.0478   -7.3191    0.1650 H   0  0  0  0  0  0  0  0  0  0  0  0
    4.5134   -5.5991   -0.2287 H   0  0  0  0  0  0  0  0  0  0  0  0
    4.2073   -8.6815    2.3522 H   0  0  0  0  0  0  0  0  0  0  0  0
    4.3404  -10.5030    4.0024 H   0  0  0  0  0  0  0  0  0  0  0  0
    5.4819  -13.2164    0.9041 H   0  0  0  0  0  0  0  0  0  0  0  0
    5.3375  -11.3915   -0.7414 H   0  0  0  0  0  0  0  0  0  0  0  0
    5.3903  -14.9820    3.8048 H   0  0  0  0  0  0  0  0  0  0  0  0
    4.6457  -14.6028    2.2332 H   0  0  0  0  0  0  0  0  0  0  0  0
    6.3583  -14.2141    2.5235 H   0  0  0  0  0  0  0  0  0  0  0  0
  1  2  1  0  0  0  0
  1 29  1  0  0  0  0
  1 30  1  0  0  0  0
  1 31  1  0  0  0  0
  2  3  1  0  0  0  0
  3  4  1  0  0  0  0
  3 32  1  0  0  0  0
  3 33  1  0  0  0  0
  4  5  1  0  0  0  0
  4 34  1  0  0  0  0
  4 35  1  0  0  0  0
  5  6  1  0  0  0  0
  5 36  1  0  0  0  0
  5 37  1  0  0  0  0
  6 27  1  0  0  0  0
  6  7  1  0  0  0  0
  7  8  2  0  0  0  0
  7  9  1  0  0  0  0
  9 10  2  0  0  0  0
  9 24  1  0  0  0  0
 10 15  1  0  0  0  0
 10 11  1  0  0  0  0
 11 12  1  0  0  0  0
 11 38  1  0  0  0  0
 11 39  1  0  0  0  0
 12 13  1  6  0  0  0
 12 14  1  0  0  0  0
 12 16  1  0  0  0  0
 14 15  1  0  0  0  0
 14 40  1  0  0  0  0
 15 41  1  0  0  0  0
 16 21  2  0  0  0  0
 16 17  1  0  0  0  0
 17 18  2  0  0  0  0
 17 42  1  0  0  0  0
 18 19  1  0  0  0  0
 18 43  1  0  0  0  0
 19 20  2  0  0  0  0
 19 22  1  0  0  0  0
 20 21  1  0  0  0  0
 20 44  1  0  0  0  0
 21 45  1  0  0  0  0
 22 23  1  0  0  0  0
 23 46  1  0  0  0  0
 23 47  1  0  0  0  0
 23 48  1  0  0  0  0
 24 25  1  0  0  0  0
 24 26  2  0  0  0  0
 26 27  1  0  0  0  0
 27 28  2  0  0  0  0
M  CHG  1  25  -1
M  END
$$$$
ZINC40027474
 OpenBabel01252620473D

 59 61  0  0  1  0  0  0  0  0999 V2000
    2.0495    1.5656   -1.3886 C   0  0  0  0  0  0  0  0  0  0  0  0
    2.0989    0.0594   -1.3897 C   0  0  0  0  0  0  0  0  0  0  0  0
    1.0622   -0.6620   -1.9378 C   0  0  0  0  0  0  0  0  0  0  0  0
    1.1090   -2.0593   -1.9384 C   0  0  0  0  0  0  0  0  0  0  0  0
    2.2096   -2.7183   -1.3816 C   0  0  0  0  0  0  0  0  0  0  0  0
    3.2418   -1.9896   -0.8357 C   0  0  0  0  0  0  0  0  0  0  0  0
    3.1939   -0.5997   -0.8424 C   0  0  0  0  0  0  0  0  0  0  0  0
    4.2161    0.1151   -0.3081 O   0  0  0  0  0  0  0  0  0  0  0  0
    5.3099   -0.6252    0.2373 C   0  0  0  0  0  0  0  0  0  0  0  0
    6.3416    0.3296    0.7805 C   0  0  0  0  0  0  0  0  0  0  0  0
    6.8825    0.1116    1.9535 C   0  0  0  0  0  0  0  0  0  0  0  0
   -0.0004   -2.8367   -2.5245 C   0  0  0  0  0  0  0  0  0  0  0  0
   -0.9889   -2.2646   -2.9447 O   0  0  0  0  0  0  0  0  0  0  0  0
    0.0885   -4.2984   -2.6004 C   0  0  0  0  0  0  0  0  0  0  0  0
    0.1802   -5.0440   -3.7260 C   0  0  0  0  0  0  0  0  0  0  0  0
    0.2483   -6.4736   -3.3573 C   0  0  0  0  0  0  0  0  0  0  0  0
    0.3359   -7.3937   -4.1460 O   0  0  0  0  0  0  0  0  0  0  0  0
    0.1991   -6.6056   -2.0193 N   0  0  0  0  0  0  0  0  0  0  0  0
    0.1021   -5.2620   -1.4368 C   0  0  2  0  0  0  0  0  0  0  0  0
    0.9626   -5.0653   -0.7973 H   0  0  0  0  0  0  0  0  0  0  0  0
   -1.1733   -5.1353   -0.6441 C   0  0  0  0  0  0  0  0  0  0  0  0
   -2.3135   -5.7986   -1.0592 C   0  0  0  0  0  0  0  0  0  0  0  0
   -3.4851   -5.6844   -0.3343 C   0  0  0  0  0  0  0  0  0  0  0  0
   -3.5195   -4.9063    0.8070 C   0  0  0  0  0  0  0  0  0  0  0  0
   -2.3772   -4.2399    1.2254 C   0  0  0  0  0  0  0  0  0  0  0  0
   -1.2010   -4.3611    0.4994 C   0  0  0  0  0  0  0  0  0  0  0  0
   -2.4086   -3.4740    2.3476 O   0  0  0  0  0  0  0  0  0  0  0  0
   -3.6520   -3.4000    3.0480 C   0  0  0  0  0  0  0  0  0  0  0  0
   -3.4960   -2.5128    4.2561 C   0  0  0  0  0  0  0  0  0  0  0  0
   -4.4080   -1.6133    4.5304 C   0  0  0  0  0  0  0  0  0  0  0  0
    0.2406   -7.8670   -1.2753 C   0  0  0  0  0  0  0  0  0  0  0  0
    1.6720   -8.2169   -0.9594 C   0  0  0  0  0  0  0  0  0  0  0  0
    2.0335   -8.4402    0.2798 C   0  0  0  0  0  0  0  0  0  0  0  0
    0.2055   -4.5580   -4.9884 O   0  5  0  0  0  0  0  0  0  0  0  0
    2.5047    1.9447   -2.3036 H   0  0  0  0  0  0  0  0  0  0  0  0
    1.0119    1.8951   -1.3355 H   0  0  0  0  0  0  0  0  0  0  0  0
    2.5962    1.9464   -0.5259 H   0  0  0  0  0  0  0  0  0  0  0  0
    0.2138   -0.1492   -2.3665 H   0  0  0  0  0  0  0  0  0  0  0  0
    2.2495   -3.7976   -1.3797 H   0  0  0  0  0  0  0  0  0  0  0  0
    4.0921   -2.4977   -0.4055 H   0  0  0  0  0  0  0  0  0  0  0  0
    4.9495   -1.2667    1.0414 H   0  0  0  0  0  0  0  0  0  0  0  0
    5.7586   -1.2390   -0.5438 H   0  0  0  0  0  0  0  0  0  0  0  0
    6.6350    1.1936    0.2027 H   0  0  0  0  0  0  0  0  0  0  0  0
    6.5891   -0.7524    2.5313 H   0  0  0  0  0  0  0  0  0  0  0  0
    7.6218    0.7959    2.3428 H   0  0  0  0  0  0  0  0  0  0  0  0
   -2.2887   -6.4067   -1.9514 H   0  0  0  0  0  0  0  0  0  0  0  0
   -4.3742   -6.2034   -0.6605 H   0  0  0  0  0  0  0  0  0  0  0  0
   -4.4352   -4.8168    1.3726 H   0  0  0  0  0  0  0  0  0  0  0  0
   -0.3090   -3.8470    0.8258 H   0  0  0  0  0  0  0  0  0  0  0  0
   -4.4158   -2.9862    2.3895 H   0  0  0  0  0  0  0  0  0  0  0  0
   -3.9495   -4.3989    3.3667 H   0  0  0  0  0  0  0  0  0  0  0  0
   -2.6323   -2.6185    4.8958 H   0  0  0  0  0  0  0  0  0  0  0  0
   -5.2718   -1.5076    3.8908 H   0  0  0  0  0  0  0  0  0  0  0  0
   -4.2962   -0.9776    5.3963 H   0  0  0  0  0  0  0  0  0  0  0  0
   -0.3206   -7.7599   -0.3470 H   0  0  0  0  0  0  0  0  0  0  0  0
   -0.2025   -8.6594   -1.8785 H   0  0  0  0  0  0  0  0  0  0  0  0
    2.3997   -8.2836   -1.7546 H   0  0  0  0  0  0  0  0  0  0  0  0
    1.3057   -8.3735    1.0750 H   0  0  0  0  0  0  0  0  0  0  0  0
    3.0593   -8.6910    0.5062 H   0  0  0  0  0  0  0  0  0  0  0  0
  1  2  1  0  0  0  0
  1 35  1  0  0  0  0
  1 36  1  0  0  0  0
  1 37  1  0  0  0  0
  2  7  2  0  0  0  0
  2  3  1  0  0  0  0
  3  4  2  0  0  0  0
  3 38  1  0  0  0  0
  4  5  1  0  0  0  0
  4 12  1  0  0  0  0
  5  6  2  0  0  0  0
  5 39  1  0  0  0  0
  6  7  1  0  0  0  0
  6 40  1  0  0  0  0
  7  8  1  0  0  0  0
  8  9  1  0  0  0  0
  9 10  1  0  0  0  0
  9 41  1  0  0  0  0
  9 42  1  0  0  0  0
 10 11  2  0  0  0  0
 10 43  1  0  0  0  0
 11 44  1  0  0  0  0
 11 45  1  0  0  0  0
 12 13  2  0  0  0  0
 12 14  1  0  0  0  0
 14 19  1  0  0  0  0
 14 15  2  0  0  0  0
 15 16  1  0  0  0  0
 15 34  1  0  0  0  0
 16 17  2  0  0  0  0
 16 18  1  0  0  0  0
 18 19  1  0  0  0  0
 18 31  1  0  0  0  0
 19 20  1  1  0  0  0
 19 21  1  0  0  0  0
 21 26  2  0  0  0  0
 21 22  1  0  0  0  0
 22 23  2  0  0  0  0
 22 46  1  0  0  0  0
 23 24  1  0  0  0  0
 23 47  1  0  0  0  0
 24 25  2  0  0  0  0
 24 48  1  0  0  0  0
 25 26  1  0  0  0  0
 25 27  1  0  0  0  0
 26 49  1  0  0  0  0
 27 28  1  0  0  0  0
 28 29  1  0  0  0  0
 28 50  1  0  0  0  0
 28 51  1  0  0  0  0
 29 30  2  0  0  0  0
 29 52  1  0  0  0  0
 30 53  1  0  0  0  0
 30 54  1  0  0  0  0
 31 32  1  0  0  0  0
 31 55  1  0  0  0  0
 31 56  1  0  0  0  0
 32 33  2  0  0  0  0
 32 57  1  0  0  0  0
 33 58  1  0  0  0  0
 33 59  1  0  0  0  0
M  CHG  1  34  -1
M  END
$$$$
ZINC13059417
 OpenBabel01252620473D

 38 40  0  0  0  0  0  0  0  0999 V2000
   -1.5120    2.2985    1.5322 C   0  0  0  0  0  0  0  0  0  0  0  0
   -2.2120    1.2457    2.2724 N   0  0  0  0  0  0  0  0  0  0  0  0
   -3.5491    1.1817    2.5507 C   0  0  0  0  0  0  0  0  0  0  0  0
   -3.7529    0.0859    3.2259 N   0  0  0  0  0  0  0  0  0  0  0  0
   -2.6442   -0.5425    3.3923 N   0  0  0  0  0  0  0  0  0  0  0  0
   -1.6655    0.1216    2.8225 C   0  0  0  0  0  0  0  0  0  0  0  0
    0.0326   -0.3468    2.7792 S   0  0  0  0  0  0  0  0  0  0  0  0
    0.1014   -1.7936    3.7826 C   0  0  0  0  0  0  0  0  0  0  0  0
    0.2149   -3.0441    3.1929 C   0  0  0  0  0  0  0  0  0  0  0  0
    0.2683   -4.1781    3.9816 C   0  0  0  0  0  0  0  0  0  0  0  0
    0.2091   -4.0704    5.3600 C   0  0  0  0  0  0  0  0  0  0  0  0
    0.0958   -2.8270    5.9562 C   0  0  0  0  0  0  0  0  0  0  0  0
    0.0475   -1.6842    5.1723 C   0  0  0  0  0  0  0  0  0  0  0  0
   -0.0608   -0.4250    5.7733 N   0  0  0  0  0  2  0  0  0  0  0  0
   -0.1246   -0.2977    7.4232 S   0  0  0  0  0  0  0  0  0  0  0  0
   -1.3449   -0.9015    7.8302 O   0  0  0  0  0  0  0  0  0  0  0  0
    1.1384   -0.7272    7.9128 O   0  0  0  0  0  0  0  0  0  0  0  0
   -0.2577    1.4164    7.8087 C   0  0  0  0  0  0  0  0  0  0  0  0
    0.8871    2.1715    7.9936 C   0  0  0  0  0  0  0  0  0  0  0  0
    0.7906    3.5137    8.2960 C   0  0  0  0  0  0  0  0  0  0  0  0
   -0.4670    4.1107    8.4152 C   0  0  0  0  0  0  0  0  0  0  0  0
   -1.6185    3.3422    8.2267 C   0  0  0  0  0  0  0  0  0  0  0  0
   -1.5065    2.0023    7.9196 C   0  0  0  0  0  0  0  0  0  0  0  0
   -0.5785    5.5458    8.7390 C   0  0  0  0  0  0  0  0  0  0  0  0
    0.4313    6.2157    8.9037 O   0  0  0  0  0  0  0  0  0  0  0  0
   -1.6806    6.0655    8.8426 O   0  0  0  0  0  1  0  0  0  0  0  0
    0.2767   -5.4992    6.3437 Cl  0  0  0  0  0  0  0  0  0  0  0  0
   -1.5013    2.0507    0.4708 H   0  0  0  0  0  0  0  0  0  0  0  0
   -2.0258    3.2486    1.6785 H   0  0  0  0  0  0  0  0  0  0  0  0
   -0.4879    2.3793    1.8967 H   0  0  0  0  0  0  0  0  0  0  0  0
   -4.2978    1.9055    2.2642 H   0  0  0  0  0  0  0  0  0  0  0  0
    0.2614   -3.1317    2.1175 H   0  0  0  0  0  0  0  0  0  0  0  0
    0.3560   -5.1509    3.5208 H   0  0  0  0  0  0  0  0  0  0  0  0
    0.0495   -2.7461    7.0322 H   0  0  0  0  0  0  0  0  0  0  0  0
    1.8585    1.7086    7.9012 H   0  0  0  0  0  0  0  0  0  0  0  0
    1.6849    4.1016    8.4407 H   0  0  0  0  0  0  0  0  0  0  0  0
   -2.5938    3.7971    8.3173 H   0  0  0  0  0  0  0  0  0  0  0  0
   -2.3957    1.4079    7.7693 H   0  0  0  0  0  0  0  0  0  0  0  0
  1  2  1  0  0  0  0
  1 28  1  0  0  0  0
  1 29  1  0  0  0  0
  1 30  1  0  0  0  0
  2  6  1  0  0  0  0
  2  3  1  0  0  0  0
  3  4  2  0  0  0  0
  3 31  1  0  0  0  0
  4  5  1  0  0  0  0
  5  6  2  0  0  0  0
  6  7  1  0  0  0  0
  7  8  1  0  0  0  0
  8 13  2  0  0  0  0
  8  9  1  0  0  0  0
  9 10  2  0  0  0  0
  9 32  1  0  0  0  0
 10 11  1  0  0  0  0
 10 33  1  0  0  0  0
 11 12  2  0  0  0  0
 11 27  1  0  0  0  0
 12 13  1  0  0  0  0
 12 34  1  0  0  0  0
 13 14  1  0  0  0  0
 14 15  1  0  0  0  0
 15 16  2  0  0  0  0
 15 17  2  0  0  0  0
 15 18  1  0  0  0  0
 18 23  2  0  0  0  0
 18 19  1  0  0  0  0
 19 20  2  0  0  0  0
 19 35  1  0  0  0  0
 20 21  1  0  0  0  0
 20 36  1  0  0  0  0
 21 22  2  0  0  0  0
 21 24  1  0  0  0  0
 22 23  1  0  0  0  0
 22 37  1  0  0  0  0
 23 38  1  0  0  0  0
 24 25  2  0  0  0  0
 24 26  1  0  0  0  0
M  END
$$$$
ZINC22126550
 OpenBabel01252620473D

 26 27  0  0  0  0  0  0  0  0999 V2000
   -0.0187    1.5258    0.0104 C   0  0  0  0  0  0  0  0  0  0  0  0
    0.0021   -0.0041    0.0020 C   0  0  0  0  0  0  0  0  0  0  0  0
    0.6948   -0.4926   -1.2739 C   0  0  0  0  0  0  0  0  0  0  0  0
    0.8745   -1.9850   -1.2005 C   0  0  0  0  0  0  0  0  0  0  0  0
    0.8463   -2.7026   -0.0043 C   0  0  0  0  0  0  0  0  0  0  0  0
    1.0307   -3.9857   -0.2886 N   0  0  0  0  0  0  0  0  0  0  0  0
    1.1752   -4.1124   -1.5911 C   0  0  0  0  0  0  0  0  0  0  0  0
    1.0814   -2.8719   -2.1754 N   0  0  0  0  0  0  0  0  0  0  0  0
    1.1525   -2.6770   -3.1229 H   0  0  0  0  0  0  0  0  0  0  0  0
    1.4013   -5.3803   -2.3073 C   0  0  0  0  0  0  0  0  0  0  0  0
    1.4677   -6.4311   -1.6845 O   0  0  0  0  0  0  0  0  0  0  0  0
    1.5225   -5.3820   -3.5245 O   0  0  0  0  0  1  0  0  0  0  0  0
    0.6416   -2.0227    1.2886 C   0  0  0  0  0  0  0  0  0  0  0  0
    0.4086   -2.6296    2.3127 O   0  0  0  0  0  0  0  0  0  0  0  0
    0.7439   -0.5058    1.2448 C   0  0  0  0  0  0  0  0  0  0  0  0
   -1.4352   -0.5280    0.0268 C   0  0  0  0  0  0  0  0  0  0  0  0
    1.0039    1.9031    0.0027 H   0  0  0  0  0  0  0  0  0  0  0  0
   -0.5459    1.8868   -0.8726 H   0  0  0  0  0  0  0  0  0  0  0  0
   -0.5289    1.8773    0.9072 H   0  0  0  0  0  0  0  0  0  0  0  0
    0.0818   -0.2419   -2.1397 H   0  0  0  0  0  0  0  0  0  0  0  0
    1.6691   -0.0127   -1.3657 H   0  0  0  0  0  0  0  0  0  0  0  0
    1.7918   -0.2108    1.1898 H   0  0  0  0  0  0  0  0  0  0  0  0
    0.2878   -0.0821    2.1395 H   0  0  0  0  0  0  0  0  0  0  0  0
   -1.9695   -0.1650   -0.8512 H   0  0  0  0  0  0  0  0  0  0  0  0
   -1.4248   -1.6179    0.0209 H   0  0  0  0  0  0  0  0  0  0  0  0
   -1.9353   -0.1743    0.9284 H   0  0  0  0  0  0  0  0  0  0  0  0
  1  2  1  0  0  0  0
  1 17  1  0  0  0  0
  1 18  1  0  0  0  0
  1 19  1  0  0  0  0
  2 15  1  0  0  0  0
  2  3  1  0  0  0  0
  2 16  1  0  0  0  0
  3  4  1  0  0  0  0
  3 20  1  0  0  0  0
  3 21  1  0  0  0  0
  4  8  1  0  0  0  0
  4  5  2  0  0  0  0
  5  6  1  0  0  0  0
  5 13  1  0  0  0  0
  6  7  2  0  0  0  0
  7  8  1  0  0  0  0
  7 10  1  0  0  0  0
  8  9  1  0  0  0  0
 10 11  2  0  0  0  0
 10 12  1  0  0  0  0
 13 14  2  0  0  0  0
 13 15  1  0  0  0  0
 15 22  1  0  0  0  0
 15 23  1  0  0  0  0
 16 24  1  0  0  0  0
 16 25  1  0  0  0  0
 16 26  1  0  0  0  0
M  END
$$$$
ZINC01329290
 OpenBabel01252620473D

 71 74  0  0  0  0  0  0  0  0999 V2000
   -0.7358   -9.1745   -6.8319 C   0  0  0  0  0  0  0  0  0  0  0  0
    0.4662   -8.2343   -6.9412 C   0  0  0  0  0  0  0  0  0  0  0  0
    0.2497   -7.0367   -6.0524 C   0  0  0  0  0  0  0  0  0  0  0  0
   -0.3850   -5.9102   -6.5583 C   0  0  0  0  0  0  0  0  0  0  0  0
   -0.5927   -4.8035   -5.7639 C   0  0  0  0  0  0  0  0  0  0  0  0
   -0.1635   -4.8134   -4.4406 C   0  0  0  0  0  0  0  0  0  0  0  0
    0.4796   -5.9572   -3.9313 C   0  0  0  0  0  0  0  0  0  0  0  0
    0.6801   -7.0689   -4.7564 C   0  0  0  0  0  0  0  0  0  0  0  0
    0.9277   -5.9580   -2.5375 C   0  0  0  0  0  0  0  0  0  0  0  0
    0.7057   -4.8520   -1.7852 C   0  0  0  0  0  0  0  0  0  0  0  0
    0.0509   -3.7328   -2.3426 C   0  0  0  0  0  0  0  0  0  0  0  0
   -0.1431   -2.7507   -1.6473 O   0  0  0  0  0  0  0  0  0  0  0  0
   -0.3594   -3.7209   -3.6230 N   0  0  0  0  0  0  0  0  0  0  0  0
   -0.8028   -2.9334   -3.9755 H   0  0  0  0  0  0  0  0  0  0  0  0
    1.1544   -4.8199   -0.3469 C   0  0  0  0  0  0  0  0  0  0  0  0
    2.4791   -4.2001   -0.2623 N   0  0  0  0  0  0  0  0  0  0  0  0
    3.6817   -5.0112   -0.4676 C   0  0  0  0  0  0  0  0  0  0  0  0
    4.1459   -5.5837    0.8732 C   0  0  0  0  0  0  0  0  0  0  0  0
    5.3829   -6.4180    0.6619 C   0  0  0  0  0  0  0  0  0  0  0  0
    5.2660   -7.7693    0.3939 C   0  0  0  0  0  0  0  0  0  0  0  0
    6.3976   -8.5378    0.1937 C   0  0  0  0  0  0  0  0  0  0  0  0
    7.6529   -7.9563    0.2727 C   0  0  0  0  0  0  0  0  0  0  0  0
    7.7707   -6.5974    0.5481 C   0  0  0  0  0  0  0  0  0  0  0  0
    6.6323   -5.8316    0.7421 C   0  0  0  0  0  0  0  0  0  0  0  0
    9.0005   -6.0220    0.6262 O   0  0  0  0  0  0  0  0  0  0  0  0
    9.0450   -4.6225    0.9118 C   0  0  0  0  0  0  0  0  0  0  0  0
    8.7672   -8.7119    0.0811 O   0  0  0  0  0  0  0  0  0  0  0  0
    8.5701  -10.0996   -0.1975 C   0  0  0  0  0  0  0  0  0  0  0  0
    2.5915   -2.8838    0.0045 C   0  0  0  0  0  0  0  0  0  0  0  0
    4.1343   -2.1418    0.0176 S   0  0  0  0  0  0  0  0  0  0  0  0
    1.4894   -2.1517    0.2610 N   0  0  0  0  0  0  0  0  0  0  0  0
    1.5944   -0.7658    0.4371 C   0  0  0  0  0  0  0  0  0  0  0  0
    2.4311   -0.0227   -0.3848 C   0  0  0  0  0  0  0  0  0  0  0  0
    2.5338    1.3434   -0.2109 C   0  0  0  0  0  0  0  0  0  0  0  0
    1.8012    1.9733    0.7845 C   0  0  0  0  0  0  0  0  0  0  0  0
    0.9651    1.2314    1.6059 C   0  0  0  0  0  0  0  0  0  0  0  0
    0.8614   -0.1347    1.4332 C   0  0  0  0  0  0  0  0  0  0  0  0
    1.9028    3.3185    0.9551 O   0  0  0  0  0  0  0  0  0  0  0  0
    1.1201    3.9009    1.9992 C   0  0  0  0  0  0  0  0  0  0  0  0
   -1.6380   -8.6487   -7.1442 H   0  0  0  0  0  0  0  0  0  0  0  0
   -0.5792  -10.0407   -7.4747 H   0  0  0  0  0  0  0  0  0  0  0  0
   -0.8465   -9.5040   -5.7988 H   0  0  0  0  0  0  0  0  0  0  0  0
    0.5769   -7.9048   -7.9743 H   0  0  0  0  0  0  0  0  0  0  0  0
    1.3685   -8.7602   -6.6289 H   0  0  0  0  0  0  0  0  0  0  0  0
   -0.7191   -5.9011   -7.5853 H   0  0  0  0  0  0  0  0  0  0  0  0
   -1.0868   -3.9319   -6.1670 H   0  0  0  0  0  0  0  0  0  0  0  0
    1.1726   -7.9491   -4.3703 H   0  0  0  0  0  0  0  0  0  0  0  0
    1.4245   -6.8203   -2.1180 H   0  0  0  0  0  0  0  0  0  0  0  0
    1.2037   -5.8373    0.0411 H   0  0  0  0  0  0  0  0  0  0  0  0
    0.4438   -4.2403    0.2425 H   0  0  0  0  0  0  0  0  0  0  0  0
    3.4563   -5.8282   -1.1530 H   0  0  0  0  0  0  0  0  0  0  0  0
    4.4713   -4.3898   -0.8903 H   0  0  0  0  0  0  0  0  0  0  0  0
    4.3713   -4.7667    1.5585 H   0  0  0  0  0  0  0  0  0  0  0  0
    3.3563   -6.2051    1.2958 H   0  0  0  0  0  0  0  0  0  0  0  0
    4.2884   -8.2246    0.3364 H   0  0  0  0  0  0  0  0  0  0  0  0
    6.3034   -9.5922   -0.0199 H   0  0  0  0  0  0  0  0  0  0  0  0
    6.7210   -4.7768    0.9563 H   0  0  0  0  0  0  0  0  0  0  0  0
    8.5147   -4.0756    0.1322 H   0  0  0  0  0  0  0  0  0  0  0  0
    8.5713   -4.4330    1.8750 H   0  0  0  0  0  0  0  0  0  0  0  0
   10.0830   -4.2915    0.9460 H   0  0  0  0  0  0  0  0  0  0  0  0
    8.0398  -10.5652    0.6331 H   0  0  0  0  0  0  0  0  0  0  0  0
    7.9829  -10.2072   -1.1095 H   0  0  0  0  0  0  0  0  0  0  0  0
    9.5373  -10.5848   -0.3288 H   0  0  0  0  0  0  0  0  0  0  0  0
    0.6235   -2.5843    0.3237 H   0  0  0  0  0  0  0  0  0  0  0  0
    3.0013   -0.5128   -1.1601 H   0  0  0  0  0  0  0  0  0  0  0  0
    3.1880    1.9210   -0.8472 H   0  0  0  0  0  0  0  0  0  0  0  0
    0.3952    1.7224    2.3810 H   0  0  0  0  0  0  0  0  0  0  0  0
    0.2101   -0.7121    2.0726 H   0  0  0  0  0  0  0  0  0  0  0  0
    0.0637    3.7084    1.8120 H   0  0  0  0  0  0  0  0  0  0  0  0
    1.4055    3.4620    2.9553 H   0  0  0  0  0  0  0  0  0  0  0  0
    1.2940    4.9766    2.0268 H   0  0  0  0  0  0  0  0  0  0  0  0
  1  2  1  0  0  0  0
  1 40  1  0  0  0  0
  1 41  1  0  0  0  0
  1 42  1  0  0  0  0
  2  3  1  0  0  0  0
  2 43  1  0  0  0  0
  2 44  1  0  0  0  0
  3  8  2  0  0  0  0
  3  4  1  0  0  0  0
  4  5  2  0  0  0  0
  4 45  1  0  0  0  0
  5  6  1  0  0  0  0
  5 46  1  0  0  0  0
  6 13  1  0  0  0  0
  6  7  2  0  0  0  0
  7  8  1  0  0  0  0
  7  9  1  0  0  0  0
  8 47  1  0  0  0  0
  9 10  2  0  0  0  0
  9 48  1  0  0  0  0
 10 11  1  0  0  0  0
 10 15  1  0  0  0  0
 11 12  2  0  0  0  0
 11 13  1  0  0  0  0
 13 14  1  0  0  0  0
 15 16  1  0  0  0  0
 15 49  1  0  0  0  0
 15 50  1  0  0  0  0
 16 17  1  0  0  0  0
 16 29  1  0  0  0  0
 17 18  1  0  0  0  0
 17 51  1  0  0  0  0
 17 52  1  0  0  0  0
 18 19  1  0  0  0  0
 18 53  1  0  0  0  0
 18 54  1  0  0  0  0
 19 24  2  0  0  0  0
 19 20  1  0  0  0  0
 20 21  2  0  0  0  0
 20 55  1  0  0  0  0
 21 22  1  0  0  0  0
 21 56  1  0  0  0  0
 22 23  2  0  0  0  0
 22 27  1  0  0  0  0
 23 24  1  0  0  0  0
 23 25  1  0  0  0  0
 24 57  1  0  0  0  0
 25 26  1  0  0  0  0
 26 58  1  0  0  0  0
 26 59  1  0  0  0  0
 26 60  1  0  0  0  0
 27 28  1  0  0  0  0
 28 61  1  0  0  0  0
 28 62  1  0  0  0  0
 28 63  1  0  0  0  0
 29 30  2  0  0  0  0
 29 31  1  0  0  0  0
 31 32  1  0  0  0  0
 31 64  1  0  0  0  0
 32 37  2  0  0  0  0
 32 33  1  0  0  0  0
 33 34  2  0  0  0  0
 33 65  1  0  0  0  0
 34 35  1  0  0  0  0
 34 66  1  0  0  0  0
 35 36  2  0  0  0  0
 35 38  1  0  0  0  0
 36 37  1  0  0  0  0
 36 67  1  0  0  0  0
 37 68  1  0  0  0  0
 38 39  1  0  0  0  0
 39 69  1  0  0  0  0
 39 70  1  0  0  0  0
 39 71  1  0  0  0  0
M  END
$$$$
ZINC44616337
 OpenBabel01252620473D

 32 32  0  0  1  0  0  0  0  0999 V2000
    0.2993    1.8738   -0.0328 C   0  0  0  0  0  0  0  0  0  0  0  0
    0.2656    0.3653    0.2202 C   0  0  0  0  0  0  0  0  0  0  0  0
    0.7698   -0.3717   -1.0222 C   0  0  2  0  0  0  0  0  0  0  0  0
    0.1860   -0.0633   -1.8894 H   0  0  0  0  0  0  0  0  0  0  0  0
    0.6218   -1.8576   -0.8195 C   0  0  0  0  0  0  0  0  0  0  0  0
   -0.4074   -2.4190   -1.1544 O   0  0  0  0  0  0  0  0  0  0  0  0
    1.5312   -2.4984   -0.3205 O   0  0  0  0  0  1  0  0  0  0  0  0
    2.1812   -0.0472   -1.2432 N   0  0  0  0  0  0  0  0  0  0  0  0
    3.1756   -0.3649   -0.2153 C   0  0  0  0  0  0  0  0  0  0  0  0
    2.5649    0.5437   -2.3921 C   0  0  0  0  0  0  0  0  0  0  0  0
    1.7292    0.9006   -3.2014 O   0  0  0  0  0  0  0  0  0  0  0  0
    3.9899    0.7566   -2.6671 C   0  0  0  0  0  0  0  0  0  0  0  0
    4.5953    1.4348   -3.7019 C   0  0  0  0  0  0  0  0  0  0  0  0
    5.9049    1.4649   -3.6960 N   0  0  0  0  0  0  0  0  0  0  0  0
    6.6026    0.8776   -2.7505 C   0  0  0  0  0  0  0  0  0  0  0  0
    5.4230    0.2154   -1.7491 S   0  0  0  0  0  0  0  0  0  0  0  0
    8.1005    0.8167   -2.5961 C   0  0  0  0  0  0  0  0  0  0  0  0
    3.7923    2.1072   -4.7855 C   0  0  0  0  0  0  0  0  0  0  0  0
    1.3219    2.1833   -0.2488 H   0  0  0  0  0  0  0  0  0  0  0  0
   -0.3401    2.1141   -0.8823 H   0  0  0  0  0  0  0  0  0  0  0  0
   -0.0600    2.3988    0.8523 H   0  0  0  0  0  0  0  0  0  0  0  0
    0.9050    0.1250    1.0697 H   0  0  0  0  0  0  0  0  0  0  0  0
   -0.7570    0.0558    0.4362 H   0  0  0  0  0  0  0  0  0  0  0  0
    3.6406   -1.3239   -0.4438 H   0  0  0  0  0  0  0  0  0  0  0  0
    3.9386    0.4132   -0.1950 H   0  0  0  0  0  0  0  0  0  0  0  0
    2.6873   -0.4206    0.7577 H   0  0  0  0  0  0  0  0  0  0  0  0
    8.4397    1.6672   -2.0048 H   0  0  0  0  0  0  0  0  0  0  0  0
    8.3764   -0.1095   -2.0920 H   0  0  0  0  0  0  0  0  0  0  0  0
    8.5687    0.8483   -3.5799 H   0  0  0  0  0  0  0  0  0  0  0  0
    3.5760    3.1347   -4.4929 H   0  0  0  0  0  0  0  0  0  0  0  0
    4.3629    2.1064   -5.7142 H   0  0  0  0  0  0  0  0  0  0  0  0
    2.8572    1.5669   -4.9331 H   0  0  0  0  0  0  0  0  0  0  0  0
  1  2  1  0  0  0  0
  1 19  1  0  0  0  0
  1 20  1  0  0  0  0
  1 21  1  0  0  0  0
  2  3  1  0  0  0  0
  2 22  1  0  0  0  0
  2 23  1  0  0  0  0
  3  4  1  6  0  0  0
  3  5  1  0  0  0  0
  3  8  1  0  0  0  0
  5  6  2  0  0  0  0
  5  7  1  0  0  0  0
  8  9  1  0  0  0  0
  8 10  1  0  0  0  0
  9 24  1  0  0  0  0
  9 25  1  0  0  0  0
  9 26  1  0  0  0  0
 10 11  2  0  0  0  0
 10 12  1  0  0  0  0
 12 16  1  0  0  0  0
 12 13  2  0  0  0  0
 13 14  1  0  0  0  0
 13 18  1  0  0  0  0
 14 15  2  0  0  0  0
 15 16  1  0  0  0  0
 15 17  1  0  0  0  0
 17 27  1  0  0  0  0
 17 28  1  0  0  0  0
 17 29  1  0  0  0  0
 18 30  1  0  0  0  0
 18 31  1  0  0  0  0
 18 32  1  0  0  0  0
M  END
$$$$
ZINC36756773
 OpenBabel01252620473D

 27 28  0  0  0  0  0  0  0  0999 V2000
   -0.0163    1.3832    0.0440 C   0  0  0  0  0  0  0  0  0  0  0  0
    1.1917    2.0616    0.0255 C   0  0  0  0  0  0  0  0  0  0  0  0
    2.3835    1.3332    0.0039 C   0  0  0  0  0  0  0  0  0  0  0  0
    2.3666    0.0103    0.0007 N   0  0  0  0  0  0  0  0  0  0  0  0
    1.2298   -0.6685    0.0181 C   0  0  0  0  0  0  0  0  0  0  0  0
    0.0021   -0.0024    0.0405 C   0  0  0  0  0  0  0  0  0  0  0  0
    1.2602   -2.1484    0.0132 C   0  0  0  0  0  0  0  0  0  0  0  0
    2.3309   -2.7376   -0.0068 O   0  0  0  0  0  0  0  0  0  0  0  0
    0.2145   -2.7812    0.0291 O   0  0  0  0  0  1  0  0  0  0  0  0
    3.6804    2.0499   -0.0160 C   0  0  0  0  0  0  0  0  0  0  0  0
    3.7033    3.2649   -0.0136 O   0  0  0  0  0  0  0  0  0  0  0  0
    4.8346    1.3542   -0.0368 N   0  0  0  0  0  0  0  0  0  0  0  0
    6.0556    2.0279   -0.1505 C   0  0  0  0  0  0  0  0  0  0  0  0
    6.2225    3.2709    0.4459 C   0  0  0  0  0  0  0  0  0  0  0  0
    7.4288    3.9338    0.3322 C   0  0  0  0  0  0  0  0  0  0  0  0
    8.4709    3.3612   -0.3757 C   0  0  0  0  0  0  0  0  0  0  0  0
    8.3082    2.1233   -0.9716 C   0  0  0  0  0  0  0  0  0  0  0  0
    7.1056    1.4520   -0.8557 C   0  0  0  0  0  0  0  0  0  0  0  0
    6.9044   -0.1050   -1.5966 Cl  0  0  0  0  0  0  0  0  0  0  0  0
   10.1204    4.2729   -0.5292 Br  0  0  0  0  0  0  0  0  0  0  0  0
   -0.9517    1.9226    0.0653 H   0  0  0  0  0  0  0  0  0  0  0  0
    1.2116    3.1414    0.0273 H   0  0  0  0  0  0  0  0  0  0  0  0
   -0.9222   -0.5609    0.0550 H   0  0  0  0  0  0  0  0  0  0  0  0
    4.8187    0.3865    0.0270 H   0  0  0  0  0  0  0  0  0  0  0  0
    5.4096    3.7190    0.9980 H   0  0  0  0  0  0  0  0  0  0  0  0
    7.5587    4.9004    0.7960 H   0  0  0  0  0  0  0  0  0  0  0  0
    9.1230    1.6792   -1.5240 H   0  0  0  0  0  0  0  0  0  0  0  0
  1  6  2  0  0  0  0
  1  2  1  0  0  0  0
  1 21  1  0  0  0  0
  2  3  2  0  0  0  0
  2 22  1  0  0  0  0
  3  4  1  0  0  0  0
  3 10  1  0  0  0  0
  4  5  2  0  0  0  0
  5  6  1  0  0  0  0
  5  7  1  0  0  0  0
  6 23  1  0  0  0  0
  7  8  2  0  0  0  0
  7  9  1  0  0  0  0
 10 11  2  0  0  0  0
 10 12  1  0  0  0  0
 12 13  1  0  0  0  0
 12 24  1  0  0  0  0
 13 18  2  0  0  0  0
 13 14  1  0  0  0  0
 14 15  2  0  0  0  0
 14 25  1  0  0  0  0
 15 16  1  0  0  0  0
 15 26  1  0  0  0  0
 16 17  2  0  0  0  0
 16 20  1  0  0  0  0
 17 18  1  0  0  0  0
 17 27  1  0  0  0  0
 18 19  1  0  0  0  0
M  END
$$$$
ZINC13045335
 OpenBabel01252620473D

 55 58  0  0  0  0  0  0  0  0999 V2000
    4.1267    7.9076    7.4396 C   0  0  0  0  0  0  0  0  0  0  0  0
    3.0567    8.7823    7.3954 C   0  0  0  0  0  0  0  0  0  0  0  0
    2.6428    9.3087    6.1872 C   0  0  0  0  0  0  0  0  0  0  0  0
    3.3019    8.9590    5.0172 C   0  0  0  0  0  0  0  0  0  0  0  0
    4.3720    8.0769    5.0638 C   0  0  0  0  0  0  0  0  0  0  0  0
    4.7849    7.5571    6.2752 C   0  0  0  0  0  0  0  0  0  0  0  0
    2.8965    9.4750    3.8274 O   0  0  0  0  0  0  0  0  0  0  0  0
    3.6337    9.1865    2.7222 C   0  0  0  0  0  0  0  0  0  0  0  0
    4.5728   10.0934    2.2573 C   0  0  0  0  0  0  0  0  0  0  0  0
    5.3175    9.8009    1.1301 C   0  0  0  0  0  0  0  0  0  0  0  0
    5.1324    8.6020    0.4663 C   0  0  0  0  0  0  0  0  0  0  0  0
    4.2017    7.6899    0.9264 C   0  0  0  0  0  0  0  0  0  0  0  0
    3.4505    7.9762    2.0569 C   0  0  0  0  0  0  0  0  0  0  0  0
    2.5060    7.0532    2.5250 N   0  0  0  0  0  0  0  0  0  0  0  0
    2.5856    5.7602    2.1532 C   0  0  0  0  0  0  0  0  0  0  0  0
    3.4645    5.3990    1.3993 O   0  0  0  0  0  0  0  0  0  0  0  0
    1.5828    4.7633    2.6741 C   0  0  0  0  0  0  0  0  0  0  0  0
    1.9533    3.1255    1.9986 S   0  0  0  0  0  0  0  0  0  0  0  0
    0.6656    2.1862    2.7496 C   0  0  0  0  0  0  0  0  0  0  0  0
   -0.1819    2.8041    3.5348 N   0  0  0  0  0  0  0  0  0  0  0  0
   -1.1913    2.1428    4.1484 C   0  0  0  0  0  0  0  0  0  0  0  0
   -2.0912    2.8032    4.9898 C   0  0  0  0  0  0  0  0  0  0  0  0
   -3.1119    2.0830    5.5975 C   0  0  0  0  0  0  0  0  0  0  0  0
   -3.2424    0.7065    5.3716 C   0  0  0  0  0  0  0  0  0  0  0  0
   -2.3690    0.0509    4.5521 C   0  0  0  0  0  0  0  0  0  0  0  0
   -1.3369    0.7540    3.9317 C   0  0  0  0  0  0  0  0  0  0  0  0
   -0.3744    0.0870    3.0405 C   0  0  0  0  0  0  0  0  0  0  0  0
   -0.4466   -1.1066    2.8144 O   0  0  0  0  0  0  0  0  0  0  0  0
    0.5940    0.8490    2.4819 N   0  0  0  0  0  0  0  0  0  0  0  0
    1.5775    0.2335    1.5874 C   0  0  0  0  0  0  0  0  0  0  0  0
    1.0604    0.2848    0.1483 C   0  0  0  0  0  0  0  0  0  0  0  0
    0.9644    1.6463   -0.2751 O   0  0  0  0  0  0  0  0  0  0  0  0
   -4.0684    2.7748    6.4894 C   0  0  0  0  0  0  0  0  0  0  0  0
   -3.9596    3.9679    6.6880 O   0  0  0  0  0  0  0  0  0  0  0  0
    4.4486    7.4971    8.3853 H   0  0  0  0  0  0  0  0  0  0  0  0
    2.5443    9.0544    8.3063 H   0  0  0  0  0  0  0  0  0  0  0  0
    1.8068    9.9916    6.1532 H   0  0  0  0  0  0  0  0  0  0  0  0
    4.8841    7.7999    4.1541 H   0  0  0  0  0  0  0  0  0  0  0  0
    5.6201    6.8734    6.3124 H   0  0  0  0  0  0  0  0  0  0  0  0
    4.7196   11.0308    2.7732 H   0  0  0  0  0  0  0  0  0  0  0  0
    6.0458   10.5108    0.7666 H   0  0  0  0  0  0  0  0  0  0  0  0
    5.7164    8.3780   -0.4142 H   0  0  0  0  0  0  0  0  0  0  0  0
    4.0590    6.7545    0.4057 H   0  0  0  0  0  0  0  0  0  0  0  0
    1.7948    7.3449    3.1166 H   0  0  0  0  0  0  0  0  0  0  0  0
    0.5801    5.0635    2.3697 H   0  0  0  0  0  0  0  0  0  0  0  0
    1.6368    4.7282    3.7622 H   0  0  0  0  0  0  0  0  0  0  0  0
   -1.9940    3.8643    5.1656 H   0  0  0  0  0  0  0  0  0  0  0  0
   -4.0406    0.1590    5.8505 H   0  0  0  0  0  0  0  0  0  0  0  0
   -2.4776   -1.0105    4.3845 H   0  0  0  0  0  0  0  0  0  0  0  0
    1.7352   -0.8046    1.8800 H   0  0  0  0  0  0  0  0  0  0  0  0
    2.5199    0.7771    1.6544 H   0  0  0  0  0  0  0  0  0  0  0  0
    1.7494   -0.2510   -0.5046 H   0  0  0  0  0  0  0  0  0  0  0  0
    0.0764   -0.1813    0.0990 H   0  0  0  0  0  0  0  0  0  0  0  0
    0.6423    1.7549   -1.1804 H   0  0  0  0  0  0  0  0  0  0  0  0
   -5.0598    2.0812    7.0811 O   0  0  0  0  0  1  0  0  0  0  0  0
  1  6  2  0  0  0  0
  1  2  1  0  0  0  0
  1 35  1  0  0  0  0
  2  3  2  0  0  0  0
  2 36  1  0  0  0  0
  3  4  1  0  0  0  0
  3 37  1  0  0  0  0
  4  5  2  0  0  0  0
  4  7  1  0  0  0  0
  5  6  1  0  0  0  0
  5 38  1  0  0  0  0
  6 39  1  0  0  0  0
  7  8  1  0  0  0  0
  8 13  2  0  0  0  0
  8  9  1  0  0  0  0
  9 10  2  0  0  0  0
  9 40  1  0  0  0  0
 10 11  1  0  0  0  0
 10 41  1  0  0  0  0
 11 12  2  0  0  0  0
 11 42  1  0  0  0  0
 12 13  1  0  0  0  0
 12 43  1  0  0  0  0
 13 14  1  0  0  0  0
 14 15  1  0  0  0  0
 14 44  1  0  0  0  0
 15 16  2  0  0  0  0
 15 17  1  0  0  0  0
 17 18  1  0  0  0  0
 17 45  1  0  0  0  0
 17 46  1  0  0  0  0
 18 19  1  0  0  0  0
 19 29  1  0  0  0  0
 19 20  2  0  0  0  0
 20 21  1  0  0  0  0
 21 26  2  0  0  0  0
 21 22  1  0  0  0  0
 22 23  2  0  0  0  0
 22 47  1  0  0  0  0
 23 24  1  0  0  0  0
 23 33  1  0  0  0  0
 24 25  2  0  0  0  0
 24 48  1  0  0  0  0
 25 26  1  0  0  0  0
 25 49  1  0  0  0  0
 26 27  1  0  0  0  0
 27 28  2  0  0  0  0
 27 29  1  0  0  0  0
 29 30  1  0  0  0  0
 30 31  1  0  0  0  0
 30 50  1  0  0  0  0
 30 51  1  0  0  0  0
 31 32  1  0  0  0  0
 31 52  1  0  0  0  0
 31 53  1  0  0  0  0
 32 54  1  0  0  0  0
 33 34  2  0  0  0  0
 33 55  1  0  0  0  0
M  END
$$$$
ZINC20325604
 OpenBabel01252620473D

 43 44  0  0  1  0  0  0  0  0999 V2000
    3.9290   -6.0704    0.8585 C   0  0  0  0  0  0  0  0  0  0  0  0
    3.1501   -4.8985    1.4594 C   0  0  0  0  0  0  0  0  0  0  0  0
    3.8726   -3.6499    1.2040 N   0  0  0  0  0  0  0  0  0  0  0  0
    3.3731   -2.5538    0.5955 C   0  0  0  0  0  0  0  0  0  0  0  0
    4.3536   -1.6222    0.5541 C   0  0  0  0  0  0  0  0  0  0  0  0
    5.4931   -2.1697    1.1527 C   0  0  0  0  0  0  0  0  0  0  0  0
    5.2041   -3.3830    1.5481 N   0  0  0  0  0  0  0  0  0  0  0  0
    6.8226   -1.4797    1.3177 C   0  0  0  0  0  0  0  0  0  0  0  0
    4.2400   -0.2411   -0.0380 C   0  0  1  0  0  0  0  0  0  0  0  0
    4.8093    0.4744    0.5735 H   0  0  0  0  0  0  0  0  0  0  0  0
    4.7515   -0.2607   -1.4799 C   0  0  0  0  0  0  0  0  0  0  0  0
    2.8377    0.1828   -0.0231 N   0  0  0  0  0  0  0  0  0  0  0  0
    2.5304    1.4950   -0.0134 C   0  0  0  0  0  0  0  0  0  0  0  0
    3.4171    2.3272   -0.0170 O   0  0  0  0  0  0  0  0  0  0  0  0
    1.1192    1.9215    0.0017 C   0  0  0  0  0  0  0  0  0  0  0  0
   -0.0126    1.0758    0.0080 C   0  0  0  0  0  0  0  0  0  0  0  0
   -1.0784    1.8279    0.0165 N   0  0  0  0  0  0  0  0  0  0  0  0
   -0.6853    3.1709    0.0257 N   0  0  0  0  0  0  0  0  0  0  0  0
    0.6563    3.2220    0.0131 C   0  0  0  0  0  0  0  0  0  0  0  0
   -1.5858    4.3264    0.0405 C   0  0  0  0  0  0  0  0  0  0  0  0
   -2.5631    4.2263   -1.1324 C   0  0  0  0  0  0  0  0  0  0  0  0
   -3.4895    5.4149   -1.1171 C   0  0  0  0  0  0  0  0  0  0  0  0
   -3.3793    6.2557   -0.2565 O   0  0  0  0  0  0  0  0  0  0  0  0
   -4.4370    5.5395   -2.0597 O   0  0  0  0  0  1  0  0  0  0  0  0
    3.3866   -7.0079    1.0502 H   0  0  0  0  0  0  0  0  0  0  0  0
    4.9262   -6.1228    1.3198 H   0  0  0  0  0  0  0  0  0  0  0  0
    4.0341   -5.9229   -0.2265 H   0  0  0  0  0  0  0  0  0  0  0  0
    2.1529   -4.8461    0.9981 H   0  0  0  0  0  0  0  0  0  0  0  0
    3.0449   -5.0460    2.5444 H   0  0  0  0  0  0  0  0  0  0  0  0
    2.3706   -2.4407    0.2102 H   0  0  0  0  0  0  0  0  0  0  0  0
    7.5267   -2.1567    1.8235 H   0  0  0  0  0  0  0  0  0  0  0  0
    6.6910   -0.5697    1.9215 H   0  0  0  0  0  0  0  0  0  0  0  0
    7.2205   -1.2091    0.3285 H   0  0  0  0  0  0  0  0  0  0  0  0
    4.6686    0.7474   -1.9121 H   0  0  0  0  0  0  0  0  0  0  0  0
    4.1493   -0.9646   -2.0730 H   0  0  0  0  0  0  0  0  0  0  0  0
    5.8044   -0.5790   -1.4911 H   0  0  0  0  0  0  0  0  0  0  0  0
    2.0356   -0.5699   -0.0198 H   0  0  0  0  0  0  0  0  0  0  0  0
    0.0021   -0.0041    0.0020 H   0  0  0  0  0  0  0  0  0  0  0  0
    1.2620    4.1162    0.0118 H   0  0  0  0  0  0  0  0  0  0  0  0
   -2.1479    4.3411    0.9859 H   0  0  0  0  0  0  0  0  0  0  0  0
   -0.9972    5.2512   -0.0505 H   0  0  0  0  0  0  0  0  0  0  0  0
   -2.0010    4.2116   -2.0778 H   0  0  0  0  0  0  0  0  0  0  0  0
   -3.1516    3.3015   -1.0414 H   0  0  0  0  0  0  0  0  0  0  0  0
  1  2  1  0  0  0  0
  1 25  1  0  0  0  0
  1 26  1  0  0  0  0
  1 27  1  0  0  0  0
  2  3  1  0  0  0  0
  2 28  1  0  0  0  0
  2 29  1  0  0  0  0
  3  7  1  0  0  0  0
  3  4  1  0  0  0  0
  4  5  2  0  0  0  0
  4 30  1  0  0  0  0
  5  6  1  0  0  0  0
  5  9  1  0  0  0  0
  6  7  2  0  0  0  0
  6  8  1  0  0  0  0
  8 31  1  0  0  0  0
  8 32  1  0  0  0  0
  8 33  1  0  0  0  0
  9 10  1  1  0  0  0
  9 11  1  0  0  0  0
  9 12  1  0  0  0  0
 11 34  1  0  0  0  0
 11 35  1  0  0  0  0
 11 36  1  0  0  0  0
 12 13  1  0  0  0  0
 12 37  1  0  0  0  0
 13 14  2  0  0  0  0
 13 15  1  0  0  0  0
 15 19  2  0  0  0  0
 15 16  1  0  0  0  0
 16 17  2  0  0  0  0
 16 38  1  0  0  0  0
 17 18  1  0  0  0  0
 18 19  1  0  0  0  0
 18 20  1  0  0  0  0
 19 39  1  0  0  0  0
 20 21  1  0  0  0  0
 20 40  1  0  0  0  0
 20 41  1  0  0  0  0
 21 22  1  0  0  0  0
 21 42  1  0  0  0  0
 21 43  1  0  0  0  0
 22 23  2  0  0  0  0
 22 24  1  0  0  0  0
M  END
$$$$
ZINC44627390
 OpenBabel01252620473D

 36 36  0  0  1  0  0  0  0  0999 V2000
   -0.3586    1.8568    0.4784 C   0  0  0  0  0  0  0  0  0  0  0  0
   -0.0398    0.3782    0.2480 C   0  0  0  0  0  0  0  0  0  0  0  0
   -1.3393   -0.3919    0.0051 C   0  0  2  0  0  0  0  0  0  0  0  0
   -2.0245   -0.2193    0.8350 H   0  0  0  0  0  0  0  0  0  0  0  0
   -1.0382   -1.8648   -0.0998 C   0  0  0  0  0  0  0  0  0  0  0  0
   -0.6920   -2.4882    0.8892 O   0  0  0  0  0  0  0  0  0  0  0  0
   -1.1408   -2.4331   -1.1735 O   0  0  0  0  0  1  0  0  0  0  0  0
   -1.9553    0.0704   -1.2411 N   0  0  0  0  0  0  0  0  0  0  0  0
   -1.2288   -0.0530   -2.5072 C   0  0  0  0  0  0  0  0  0  0  0  0
   -3.1905    0.6094   -1.2227 C   0  0  0  0  0  0  0  0  0  0  0  0
   -3.7157    0.8898   -0.1626 O   0  0  0  0  0  0  0  0  0  0  0  0
   -3.8435    0.8376   -2.3794 N   0  0  0  0  0  0  0  0  0  0  0  0
   -3.4191    0.1880   -3.6297 C   0  0  0  0  0  0  0  0  0  0  0  0
   -4.6469   -0.4618   -4.2779 C   0  0  0  0  0  0  0  0  0  0  0  0
   -5.6898    0.5097   -4.3895 O   0  0  0  0  0  0  0  0  0  0  0  0
   -6.1529    1.0178   -3.1360 C   0  0  1  0  0  0  0  0  0  0  0  0
   -6.4993    0.1923   -2.5142 H   0  0  0  0  0  0  0  0  0  0  0  0
   -5.0056    1.7389   -2.4282 C   0  0  0  0  0  0  0  0  0  0  0  0
   -7.3048    1.9959   -3.3752 C   0  0  0  0  0  0  0  0  0  0  0  0
    0.5672    2.4054    0.6514 H   0  0  0  0  0  0  0  0  0  0  0  0
   -0.8619    2.2611   -0.3999 H   0  0  0  0  0  0  0  0  0  0  0  0
   -1.0084    1.9571    1.3478 H   0  0  0  0  0  0  0  0  0  0  0  0
    0.6100    0.2779   -0.6214 H   0  0  0  0  0  0  0  0  0  0  0  0
    0.4635   -0.0261    1.1262 H   0  0  0  0  0  0  0  0  0  0  0  0
   -1.3938   -1.0460   -2.9255 H   0  0  0  0  0  0  0  0  0  0  0  0
   -1.5887    0.7006   -3.2077 H   0  0  0  0  0  0  0  0  0  0  0  0
   -0.1633    0.0944   -2.3306 H   0  0  0  0  0  0  0  0  0  0  0  0
   -2.9978    0.9323   -4.3055 H   0  0  0  0  0  0  0  0  0  0  0  0
   -2.6720   -0.5752   -3.4117 H   0  0  0  0  0  0  0  0  0  0  0  0
   -4.3835   -0.8287   -5.2700 H   0  0  0  0  0  0  0  0  0  0  0  0
   -4.9879   -1.2926   -3.6603 H   0  0  0  0  0  0  0  0  0  0  0  0
   -5.3087    2.0023   -1.4149 H   0  0  0  0  0  0  0  0  0  0  0  0
   -4.7468    2.6420   -2.9810 H   0  0  0  0  0  0  0  0  0  0  0  0
   -8.1206    1.4797   -3.8813 H   0  0  0  0  0  0  0  0  0  0  0  0
   -7.6574    2.3828   -2.4191 H   0  0  0  0  0  0  0  0  0  0  0  0
   -6.9572    2.8220   -3.9955 H   0  0  0  0  0  0  0  0  0  0  0  0
  1  2  1  0  0  0  0
  1 20  1  0  0  0  0
  1 21  1  0  0  0  0
  1 22  1  0  0  0  0
  2  3  1  0  0  0  0
  2 23  1  0  0  0  0
  2 24  1  0  0  0  0
  3  4  1  1  0  0  0
  3  5  1  0  0  0  0
  3  8  1  0  0  0  0
  5  6  2  0  0  0  0
  5  7  1  0  0  0  0
  8  9  1  0  0  0  0
  8 10  1  0  0  0  0
  9 25  1  0  0  0  0
  9 26  1  0  0  0  0
  9 27  1  0  0  0  0
 10 11  2  0  0  0  0
 10 12  1  0  0  0  0
 12 18  1  0  0  0  0
 12 13  1  0  0  0  0
 13 14  1  0  0  0  0
 13 28  1  0  0  0  0
 13 29  1  0  0  0  0
 14 15  1  0  0  0  0
 14 30  1  0  0  0  0
 14 31  1  0  0  0  0
 15 16  1  0  0  0  0
 16 17  1  1  0  0  0
 16 18  1  0  0  0  0
 16 19  1  0  0  0  0
 18 32  1  0  0  0  0
 18 33  1  0  0  0  0
 19 34  1  0  0  0  0
 19 35  1  0  0  0  0
 19 36  1  0  0  0  0
M  END
$$$$
ZINC11359593
 OpenBabel01252620473D

 47 48  0  0  0  0  0  0  0  0999 V2000
   -0.0187    1.5258    0.0104 C   0  0  0  0  0  0  0  0  0  0  0  0
    0.0021   -0.0041    0.0020 C   0  0  0  0  0  0  0  0  0  0  0  0
    0.6709   -0.4649   -1.1737 O   0  0  0  0  0  0  0  0  0  0  0  0
    0.7767   -1.8092   -1.3360 C   0  0  0  0  0  0  0  0  0  0  0  0
    1.8799   -2.4875   -0.8200 C   0  0  0  0  0  0  0  0  0  0  0  0
    1.9890   -3.8545   -0.9843 C   0  0  0  0  0  0  0  0  0  0  0  0
    0.9915   -4.5553   -1.6678 C   0  0  0  0  0  0  0  0  0  0  0  0
   -0.1116   -3.8702   -2.1821 C   0  0  0  0  0  0  0  0  0  0  0  0
   -0.2172   -2.5059   -2.0107 C   0  0  0  0  0  0  0  0  0  0  0  0
   -1.7147   -1.5811   -2.7020 Br  0  0  0  0  0  0  0  0  0  0  0  0
    1.1039   -6.0162   -1.8463 C   0  0  0  0  0  0  0  0  0  0  0  0
    2.0649   -6.6112   -1.3984 O   0  0  0  0  0  0  0  0  0  0  0  0
    0.1411   -6.6906   -2.5057 N   0  0  0  0  0  0  0  0  0  0  0  0
    0.2526   -8.1405   -2.6829 C   0  0  0  0  0  0  0  0  0  0  0  0
   -0.9435   -8.6467   -3.4471 C   0  0  0  0  0  0  0  0  0  0  0  0
   -2.0801   -9.0444   -2.7668 C   0  0  0  0  0  0  0  0  0  0  0  0
   -3.1796   -9.5099   -3.4641 C   0  0  0  0  0  0  0  0  0  0  0  0
   -3.1463   -9.5787   -4.8432 C   0  0  0  0  0  0  0  0  0  0  0  0
   -2.0067   -9.1797   -5.5296 C   0  0  0  0  0  0  0  0  0  0  0  0
   -0.9055   -8.7076   -4.8261 C   0  0  0  0  0  0  0  0  0  0  0  0
   -1.9696   -9.2479   -6.9241 N   0  0  0  0  0  2  0  0  0  0  0  0
   -3.2854   -9.8051   -7.7611 S   0  0  0  0  0  0  0  0  0  0  0  0
   -3.4248  -11.1603   -7.3572 O   0  0  0  0  0  0  0  0  0  0  0  0
   -4.3122   -8.8601   -7.4934 O   0  0  0  0  0  0  0  0  0  0  0  0
   -2.7979   -9.7204   -9.5063 C   0  0  0  0  0  0  0  0  0  0  0  0
    2.8491   -1.8030   -0.1553 O   0  0  0  0  0  0  0  0  0  0  0  0
    3.9510   -2.5617    0.3467 C   0  0  0  0  0  0  0  0  0  0  0  0
    1.0039    1.9031    0.0027 H   0  0  0  0  0  0  0  0  0  0  0  0
   -0.5459    1.8868   -0.8726 H   0  0  0  0  0  0  0  0  0  0  0  0
   -0.5289    1.8773    0.9072 H   0  0  0  0  0  0  0  0  0  0  0  0
    0.5293   -0.3651    0.8851 H   0  0  0  0  0  0  0  0  0  0  0  0
   -1.0205   -0.3814    0.0098 H   0  0  0  0  0  0  0  0  0  0  0  0
    2.8436   -4.3809   -0.5855 H   0  0  0  0  0  0  0  0  0  0  0  0
   -0.8836   -4.4094   -2.7111 H   0  0  0  0  0  0  0  0  0  0  0  0
   -0.6256   -6.2158   -2.8630 H   0  0  0  0  0  0  0  0  0  0  0  0
    1.1622   -8.3698   -3.2381 H   0  0  0  0  0  0  0  0  0  0  0  0
    0.2912   -8.6239   -1.7067 H   0  0  0  0  0  0  0  0  0  0  0  0
   -2.1088   -8.9916   -1.6885 H   0  0  0  0  0  0  0  0  0  0  0  0
   -4.0653   -9.8203   -2.9298 H   0  0  0  0  0  0  0  0  0  0  0  0
   -4.0054   -9.9427   -5.3873 H   0  0  0  0  0  0  0  0  0  0  0  0
   -0.0193   -8.3927   -5.3569 H   0  0  0  0  0  0  0  0  0  0  0  0
   -1.9212  -10.3472   -9.6695 H   0  0  0  0  0  0  0  0  0  0  0  0
   -3.6186  -10.0739  -10.1304 H   0  0  0  0  0  0  0  0  0  0  0  0
   -2.5609   -8.6891   -9.7677 H   0  0  0  0  0  0  0  0  0  0  0  0
    4.6493   -1.8961    0.8541 H   0  0  0  0  0  0  0  0  0  0  0  0
    3.5864   -3.3104    1.0500 H   0  0  0  0  0  0  0  0  0  0  0  0
    4.4580   -3.0575   -0.4812 H   0  0  0  0  0  0  0  0  0  0  0  0
  1  2  1  0  0  0  0
  1 28  1  0  0  0  0
  1 29  1  0  0  0  0
  1 30  1  0  0  0  0
  2  3  1  0  0  0  0
  2 31  1  0  0  0  0
  2 32  1  0  0  0  0
  3  4  1  0  0  0  0
  4  9  2  0  0  0  0
  4  5  1  0  0  0  0
  5  6  2  0  0  0  0
  5 26  1  0  0  0  0
  6  7  1  0  0  0  0
  6 33  1  0  0  0  0
  7  8  2  0  0  0  0
  7 11  1  0  0  0  0
  8  9  1  0  0  0  0
  8 34  1  0  0  0  0
  9 10  1  0  0  0  0
 11 12  2  0  0  0  0
 11 13  1  0  0  0  0
 13 14  1  0  0  0  0
 13 35  1  0  0  0  0
 14 15  1  0  0  0  0
 14 36  1  0  0  0  0
 14 37  1  0  0  0  0
 15 20  2  0  0  0  0
 15 16  1  0  0  0  0
 16 17  2  0  0  0  0
 16 38  1  0  0  0  0
 17 18  1  0  0  0  0
 17 39  1  0  0  0  0
 18 19  2  0  0  0  0
 18 40  1  0  0  0  0
 19 20  1  0  0  0  0
 19 21  1  0  0  0  0
 20 41  1  0  0  0  0
 21 22  1  0  0  0  0
 22 23  2  0  0  0  0
 22 24  2  0  0  0  0
 22 25  1  0  0  0  0
 25 42  1  0  0  0  0
 25 43  1  0  0  0  0
 25 44  1  0  0  0  0
 26 27  1  0  0  0  0
 27 45  1  0  0  0  0
 27 46  1  0  0  0  0
 27 47  1  0  0  0  0
M  END
$$$$
ZINC13197335
 OpenBabel01252620473D

 53 55  0  0  0  0  0  0  0  0999 V2000
   -1.6368    5.5276    0.4572 C   0  0  0  0  0  0  0  0  0  0  0  0
   -1.2722    4.0705    0.3348 C   0  0  0  0  0  0  0  0  0  0  0  0
   -0.1240    3.5945    0.9425 C   0  0  0  0  0  0  0  0  0  0  0  0
    0.2153    2.2616    0.8347 C   0  0  0  0  0  0  0  0  0  0  0  0
   -0.6024    1.3930    0.1102 C   0  0  0  0  0  0  0  0  0  0  0  0
   -1.7560    1.8809   -0.5057 C   0  0  0  0  0  0  0  0  0  0  0  0
   -2.0869    3.2148   -0.3852 C   0  0  0  0  0  0  0  0  0  0  0  0
   -0.2450   -0.0366   -0.0095 C   0  0  0  0  0  0  0  0  0  0  0  0
    0.9344   -0.5673    0.2151 N   0  0  0  0  0  0  0  0  0  0  0  0
    0.8894   -1.8362    0.0166 N   0  0  0  0  0  0  0  0  0  0  0  0
   -0.3222   -2.1935   -0.3470 C   0  0  0  0  0  0  0  0  0  0  0  0
   -1.0873   -1.0626   -0.3714 N   0  0  0  0  0  0  0  0  0  0  0  0
   -2.5082   -0.9624   -0.7137 C   0  0  0  0  0  0  0  0  0  0  0  0
   -2.6562   -0.7610   -2.2231 C   0  0  0  0  0  0  0  0  0  0  0  0
   -4.1179   -0.6579   -2.5752 C   0  0  0  0  0  0  0  0  0  0  0  0
   -4.9553   -0.7374   -1.7079 O   0  0  0  0  0  0  0  0  0  0  0  0
   -0.8604   -3.8279   -0.7259 S   0  0  0  0  0  0  0  0  0  0  0  0
    0.6834   -4.7358   -0.4642 C   0  0  0  0  0  0  0  0  0  0  0  0
    0.4575   -6.2004   -0.7380 C   0  0  0  0  0  0  0  0  0  0  0  0
   -0.6394   -6.5919   -1.0768 O   0  0  0  0  0  0  0  0  0  0  0  0
    1.4742   -7.0753   -0.6065 N   0  0  0  0  0  0  0  0  0  0  0  0
    1.2884   -8.4208   -0.9459 C   0  0  0  0  0  0  0  0  0  0  0  0
    0.4262   -8.7629   -1.9750 C   0  0  0  0  0  0  0  0  0  0  0  0
    0.2479  -10.1053   -2.3128 C   0  0  0  0  0  0  0  0  0  0  0  0
    0.9322  -11.0960   -1.6044 C   0  0  0  0  0  0  0  0  0  0  0  0
    1.7843  -10.7459   -0.5780 C   0  0  0  0  0  0  0  0  0  0  0  0
    1.9649   -9.4145   -0.2461 C   0  0  0  0  0  0  0  0  0  0  0  0
    3.0395   -8.9832    1.0473 Cl  0  0  0  0  0  0  0  0  0  0  0  0
   -0.6646  -10.4775   -3.4126 C   0  0  0  0  0  0  0  0  0  0  0  0
   -1.2587   -9.6145   -4.0273 O   0  0  0  0  0  0  0  0  0  0  0  0
   -0.8383  -11.7742   -3.7341 O   0  0  0  0  0  0  0  0  0  0  0  0
   -1.7502  -12.0663   -4.8257 C   0  0  0  0  0  0  0  0  0  0  0  0
   -1.1884    6.0847   -0.3654 H   0  0  0  0  0  0  0  0  0  0  0  0
   -2.7209    5.6352    0.4206 H   0  0  0  0  0  0  0  0  0  0  0  0
   -1.2649    5.9168    1.4050 H   0  0  0  0  0  0  0  0  0  0  0  0
    0.5078    4.2677    1.5028 H   0  0  0  0  0  0  0  0  0  0  0  0
    1.1118    1.8913    1.3095 H   0  0  0  0  0  0  0  0  0  0  0  0
   -2.3905    1.2149   -1.0714 H   0  0  0  0  0  0  0  0  0  0  0  0
   -2.9818    3.5927   -0.8572 H   0  0  0  0  0  0  0  0  0  0  0  0
   -3.0188   -1.8788   -0.4176 H   0  0  0  0  0  0  0  0  0  0  0  0
   -2.9494   -0.1149   -0.1891 H   0  0  0  0  0  0  0  0  0  0  0  0
   -2.1457    0.1554   -2.5192 H   0  0  0  0  0  0  0  0  0  0  0  0
   -2.2150   -1.6085   -2.7477 H   0  0  0  0  0  0  0  0  0  0  0  0
    1.4487   -4.3537   -1.1398 H   0  0  0  0  0  0  0  0  0  0  0  0
    1.0113   -4.6054    0.5671 H   0  0  0  0  0  0  0  0  0  0  0  0
    2.3348   -6.7727   -0.2766 H   0  0  0  0  0  0  0  0  0  0  0  0
   -0.1030   -7.9930   -2.5168 H   0  0  0  0  0  0  0  0  0  0  0  0
    0.7936  -12.1361   -1.8602 H   0  0  0  0  0  0  0  0  0  0  0  0
    2.3122  -11.5133   -0.0313 H   0  0  0  0  0  0  0  0  0  0  0  0
   -2.7432  -11.6898   -4.5801 H   0  0  0  0  0  0  0  0  0  0  0  0
   -1.3936  -11.5840   -5.7358 H   0  0  0  0  0  0  0  0  0  0  0  0
   -1.7982  -13.1441   -4.9804 H   0  0  0  0  0  0  0  0  0  0  0  0
   -4.4895   -0.4779   -3.8524 O   0  0  0  0  0  1  0  0  0  0  0  0
  1  2  1  0  0  0  0
  1 33  1  0  0  0  0
  1 34  1  0  0  0  0
  1 35  1  0  0  0  0
  2  7  2  0  0  0  0
  2  3  1  0  0  0  0
  3  4  2  0  0  0  0
  3 36  1  0  0  0  0
  4  5  1  0  0  0  0
  4 37  1  0  0  0  0
  5  6  2  0  0  0  0
  5  8  1  0  0  0  0
  6  7  1  0  0  0  0
  6 38  1  0  0  0  0
  7 39  1  0  0  0  0
  8 12  1  0  0  0  0
  8  9  2  0  0  0  0
  9 10  1  0  0  0  0
 10 11  2  0  0  0  0
 11 12  1  0  0  0  0
 11 17  1  0  0  0  0
 12 13  1  0  0  0  0
 13 14  1  0  0  0  0
 13 40  1  0  0  0  0
 13 41  1  0  0  0  0
 14 15  1  0  0  0  0
 14 42  1  0  0  0  0
 14 43  1  0  0  0  0
 15 16  2  0  0  0  0
 15 53  1  0  0  0  0
 17 18  1  0  0  0  0
 18 19  1  0  0  0  0
 18 44  1  0  0  0  0
 18 45  1  0  0  0  0
 19 20  2  0  0  0  0
 19 21  1  0  0  0  0
 21 22  1  0  0  0  0
 21 46  1  0  0  0  0
 22 27  2  0  0  0  0
 22 23  1  0  0  0  0
 23 24  2  0  0  0  0
 23 47  1  0  0  0  0
 24 25  1  0  0  0  0
 24 29  1  0  0  0  0
 25 26  2  0  0  0  0
 25 48  1  0  0  0  0
 26 27  1  0  0  0  0
 26 49  1  0  0  0  0
 27 28  1  0  0  0  0
 29 30  2  0  0  0  0
 29 31  1  0  0  0  0
 31 32  1  0  0  0  0
 32 50  1  0  0  0  0
 32 51  1  0  0  0  0
 32 52  1  0  0  0  0
M  END
$$$$
ZINC48554559
 OpenBabel01252620473D

 43 44  0  0  0  0  0  0  0  0999 V2000
    0.1266    1.1886    0.8668 C   0  0  0  0  0  0  0  0  0  0  0  0
    0.1882   -0.3353    0.7449 C   0  0  0  0  0  0  0  0  0  0  0  0
    0.7731   -0.7147   -0.6170 C   0  0  0  0  0  0  0  0  0  0  0  0
    0.8346   -2.2386   -0.7390 C   0  0  0  0  0  0  0  0  0  0  0  0
    1.5281   -2.6884   -2.3537 S   0  0  0  0  0  0  0  0  0  0  0  0
    0.6269   -2.3272   -3.3913 O   0  0  0  0  0  0  0  0  0  0  0  0
    2.8971   -2.3133   -2.4201 O   0  0  0  0  0  0  0  0  0  0  0  0
    1.5428   -4.3443   -2.3642 N   0  0  0  0  0  0  0  0  0  0  0  0
    1.9917   -4.9846   -3.4046 C   0  0  0  0  0  0  0  0  0  0  0  0
    2.4464   -4.2975   -4.4771 O   0  5  0  0  0  0  0  0  0  0  0  0
    2.0048   -6.4618   -3.4139 C   0  0  0  0  0  0  0  0  0  0  0  0
    3.0548   -7.2926   -2.9665 C   0  0  0  0  0  0  0  0  0  0  0  0
    2.6900   -8.5346   -3.1366 N   0  0  0  0  0  0  0  0  0  0  0  0
    1.4063   -8.5568   -3.6936 N   0  0  0  0  0  0  0  0  0  0  0  0
    0.9914   -7.2856   -3.8557 C   0  0  0  0  0  0  0  0  0  0  0  0
   -0.3349   -6.8450   -4.4194 C   0  0  0  0  0  0  0  0  0  0  0  0
    0.6741   -9.7073   -4.0223 C   0  0  0  0  0  0  0  0  0  0  0  0
    0.0601   -9.8096   -5.2629 C   0  0  0  0  0  0  0  0  0  0  0  0
   -0.6601  -10.9432   -5.5851 C   0  0  0  0  0  0  0  0  0  0  0  0
   -0.7710  -11.9784   -4.6717 C   0  0  0  0  0  0  0  0  0  0  0  0
   -0.1604  -11.8799   -3.4330 C   0  0  0  0  0  0  0  0  0  0  0  0
    0.5671  -10.7492   -3.1081 C   0  0  0  0  0  0  0  0  0  0  0  0
    1.1678  -10.6550   -1.9017 F   0  0  0  0  0  0  0  0  0  0  0  0
   -1.4765  -13.0858   -4.9897 F   0  0  0  0  0  0  0  0  0  0  0  0
    4.3682   -6.8270   -2.3928 C   0  0  0  0  0  0  0  0  0  0  0  0
    1.1313    1.6013    0.7752 H   0  0  0  0  0  0  0  0  0  0  0  0
   -0.5051    1.5913    0.0751 H   0  0  0  0  0  0  0  0  0  0  0  0
   -0.2901    1.4589    1.8371 H   0  0  0  0  0  0  0  0  0  0  0  0
    0.8200   -0.7379    1.5366 H   0  0  0  0  0  0  0  0  0  0  0  0
   -0.8165   -0.7479    0.8365 H   0  0  0  0  0  0  0  0  0  0  0  0
    0.1413   -0.3120   -1.4088 H   0  0  0  0  0  0  0  0  0  0  0  0
    1.7778   -0.3020   -0.7087 H   0  0  0  0  0  0  0  0  0  0  0  0
    1.4664   -2.6412    0.0527 H   0  0  0  0  0  0  0  0  0  0  0  0
   -0.1701   -2.6513   -0.6474 H   0  0  0  0  0  0  0  0  0  0  0  0
   -0.2758   -6.8163   -5.5074 H   0  0  0  0  0  0  0  0  0  0  0  0
   -1.1103   -7.5485   -4.1161 H   0  0  0  0  0  0  0  0  0  0  0  0
   -0.5780   -5.8516   -4.0423 H   0  0  0  0  0  0  0  0  0  0  0  0
    0.1452   -9.0029   -5.9758 H   0  0  0  0  0  0  0  0  0  0  0  0
   -1.1376  -11.0224   -6.5506 H   0  0  0  0  0  0  0  0  0  0  0  0
   -0.2483  -12.6881   -2.7220 H   0  0  0  0  0  0  0  0  0  0  0  0
    4.2762   -6.7234   -1.3116 H   0  0  0  0  0  0  0  0  0  0  0  0
    5.1444   -7.5567   -2.6232 H   0  0  0  0  0  0  0  0  0  0  0  0
    4.6341   -5.8639   -2.8287 H   0  0  0  0  0  0  0  0  0  0  0  0
  1  2  1  0  0  0  0
  1 26  1  0  0  0  0
  1 27  1  0  0  0  0
  1 28  1  0  0  0  0
  2  3  1  0  0  0  0
  2 29  1  0  0  0  0
  2 30  1  0  0  0  0
  3  4  1  0  0  0  0
  3 31  1  0  0  0  0
  3 32  1  0  0  0  0
  4  5  1  0  0  0  0
  4 33  1  0  0  0  0
  4 34  1  0  0  0  0
  5  6  2  0  0  0  0
  5  7  2  0  0  0  0
  5  8  1  0  0  0  0
  8  9  2  0  0  0  0
  9 10  1  0  0  0  0
  9 11  1  0  0  0  0
 11 15  2  0  0  0  0
 11 12  1  0  0  0  0
 12 13  2  0  0  0  0
 12 25  1  0  0  0  0
 13 14  1  0  0  0  0
 14 15  1  0  0  0  0
 14 17  1  0  0  0  0
 15 16  1  0  0  0  0
 16 35  1  0  0  0  0
 16 36  1  0  0  0  0
 16 37  1  0  0  0  0
 17 22  2  0  0  0  0
 17 18  1  0  0  0  0
 18 19  2  0  0  0  0
 18 38  1  0  0  0  0
 19 20  1  0  0  0  0
 19 39  1  0  0  0  0
 20 21  2  0  0  0  0
 20 24  1  0  0  0  0
 21 22  1  0  0  0  0
 21 40  1  0  0  0  0
 22 23  1  0  0  0  0
 25 41  1  0  0  0  0
 25 42  1  0  0  0  0
 25 43  1  0  0  0  0
M  CHG  1  10  -1
M  END
$$$$
ZINC26528485
 OpenBabel01252620473D

 36 37  0  0  0  0  0  0  0  0999 V2000
   -0.4719    3.3505   -5.8269 C   0  0  0  0  0  0  0  0  0  0  0  0
   -1.5153    4.1118   -4.5532 S   0  0  0  0  0  0  0  0  0  0  0  0
   -2.7931    4.4251   -5.0901 O   0  0  0  0  0  0  0  0  0  0  0  0
   -0.7742    5.0858   -3.8313 O   0  0  0  0  0  0  0  0  0  0  0  0
   -1.8200    2.8249   -3.3889 C   0  0  0  0  0  0  0  0  0  0  0  0
   -2.9185    1.9994   -3.5430 C   0  0  0  0  0  0  0  0  0  0  0  0
   -3.1580    0.9899   -2.6302 C   0  0  0  0  0  0  0  0  0  0  0  0
   -2.2949    0.8014   -1.5651 C   0  0  0  0  0  0  0  0  0  0  0  0
   -1.1991    1.6309   -1.4085 C   0  0  0  0  0  0  0  0  0  0  0  0
   -0.9607    2.6407   -2.3221 C   0  0  0  0  0  0  0  0  0  0  0  0
   -0.1032    1.3959   -0.0489 S   0  0  0  0  0  0  0  0  0  0  0  0
    0.2427    0.0177   -0.0396 O   0  0  0  0  0  0  0  0  0  0  0  0
    0.8726    2.4257   -0.1311 O   0  0  0  0  0  0  0  0  0  0  0  0
   -0.9711    1.6755    1.3334 N   0  0  0  0  0  2  0  0  0  0  0  0
   -1.4260    2.9558    1.6208 C   0  0  0  0  0  0  0  0  0  0  0  0
   -1.8410    3.7962    0.5949 C   0  0  0  0  0  0  0  0  0  0  0  0
   -2.2975    5.0657    0.8834 C   0  0  0  0  0  0  0  0  0  0  0  0
   -2.3362    5.5168    2.1935 C   0  0  0  0  0  0  0  0  0  0  0  0
   -1.9236    4.7002    3.2233 C   0  0  0  0  0  0  0  0  0  0  0  0
   -1.4636    3.4098    2.9482 C   0  0  0  0  0  0  0  0  0  0  0  0
   -1.0200    2.5307    4.0456 C   0  0  0  0  0  0  0  0  0  0  0  0
   -0.6200    1.4086    3.8019 O   0  0  0  0  0  0  0  0  0  0  0  0
   -1.0579    2.9710    5.3189 N   0  0  0  0  0  0  0  0  0  0  0  0
   -2.5906   -0.4718   -0.4226 Cl  0  0  0  0  0  0  0  0  0  0  0  0
    0.5135    3.1128   -5.3997 H   0  0  0  0  0  0  0  0  0  0  0  0
   -0.3484    4.0505   -6.6664 H   0  0  0  0  0  0  0  0  0  0  0  0
   -0.9481    2.4266   -6.1869 H   0  0  0  0  0  0  0  0  0  0  0  0
   -3.5896    2.1438   -4.3768 H   0  0  0  0  0  0  0  0  0  0  0  0
   -4.0158    0.3450   -2.7509 H   0  0  0  0  0  0  0  0  0  0  0  0
   -0.1027    3.2855   -2.2024 H   0  0  0  0  0  0  0  0  0  0  0  0
   -1.8100    3.4537   -0.4289 H   0  0  0  0  0  0  0  0  0  0  0  0
   -2.6225    5.7138    0.0830 H   0  0  0  0  0  0  0  0  0  0  0  0
   -2.6915    6.5138    2.4080 H   0  0  0  0  0  0  0  0  0  0  0  0
   -1.9553    5.0571    4.2421 H   0  0  0  0  0  0  0  0  0  0  0  0
   -0.7270    2.3152    6.1377 H   0  0  0  0  0  0  0  0  0  0  0  0
   -1.4198    3.9861    5.5393 H   0  0  0  0  0  0  0  0  0  0  0  0
  1  2  1  0  0  0  0
  1 25  1  0  0  0  0
  1 26  1  0  0  0  0
  1 27  1  0  0  0  0
  2  3  2  0  0  0  0
  2  4  2  0  0  0  0
  2  5  1  0  0  0  0
  5 10  2  0  0  0  0
  5  6  1  0  0  0  0
  6  7  2  0  0  0  0
  6 28  1  0  0  0  0
  7  8  1  0  0  0  0
  7 29  1  0  0  0  0
  8  9  2  0  0  0  0
  8 24  1  0  0  0  0
  9 10  1  0  0  0  0
  9 11  1  0  0  0  0
 10 30  1  0  0  0  0
 11 12  2  0  0  0  0
 11 13  2  0  0  0  0
 11 14  1  0  0  0  0
 14 15  1  0  0  0  0
 15 20  2  0  0  0  0
 15 16  1  0  0  0  0
 16 17  2  0  0  0  0
 16 31  1  0  0  0  0
 17 18  1  0  0  0  0
 17 32  1  0  0  0  0
 18 19  2  0  0  0  0
 18 33  1  0  0  0  0
 19 20  1  0  0  0  0
 19 34  1  0  0  0  0
 20 21  1  0  0  0  0
 21 22  2  0  0  0  0
 21 23  1  0  0  0  0
 23 35  1  0  0  0  0
 23 36  1  0  0  0  0
M  END
$$$$
ZINC42335409
 OpenBabel01252620473D

 25 27  0  0  0  0  0  0  0  0999 V2000
   -0.0221    1.7819    0.0118 C   0  0  0  0  0  0  0  0  0  0  0  0
    1.2775    2.0746    0.0010 C   0  0  0  0  0  0  0  0  0  0  0  0
    2.2252    1.0747   -0.0138 N   0  0  0  0  0  0  0  0  0  0  0  0
    3.6125    0.9562   -0.0299 C   0  0  0  0  0  0  0  0  0  0  0  0
    3.9237   -0.3451   -0.0342 C   0  0  0  0  0  0  0  0  0  0  0  0
    2.7688   -1.0441   -0.0290 N   0  0  0  0  0  0  0  0  0  0  0  0
    1.7670   -0.2156   -0.0156 C   0  0  0  0  0  0  0  0  0  0  0  0
    0.0021   -0.0041    0.0020 S   0  0  0  0  0  0  0  0  0  0  0  0
    5.2878   -0.9857   -0.0331 C   0  0  0  0  0  0  0  0  0  0  0  0
    6.3570   -0.0090   -0.5197 C   0  0  0  0  0  0  0  0  0  0  0  0
    6.2114    1.5364    0.4297 S   0  0  0  0  0  0  0  0  0  0  0  0
    4.5599    2.1328   -0.0477 C   0  0  0  0  0  0  0  0  0  0  0  0
    1.7161    3.5164    0.0044 C   0  0  0  0  0  0  0  0  0  0  0  0
    1.9949    3.9533    1.4195 C   0  0  0  0  0  0  0  0  0  0  0  0
    1.8507    3.1668    2.3399 O   0  0  0  0  0  0  0  0  0  0  0  0
    2.3645    5.0932    1.6440 O   0  0  0  0  0  1  0  0  0  0  0  0
   -0.8700    2.4506    0.0273 H   0  0  0  0  0  0  0  0  0  0  0  0
    5.5311   -1.3062    0.9799 H   0  0  0  0  0  0  0  0  0  0  0  0
    5.2742   -1.8563   -0.6887 H   0  0  0  0  0  0  0  0  0  0  0  0
    7.3453   -0.4417   -0.3644 H   0  0  0  0  0  0  0  0  0  0  0  0
    6.2083    0.1977   -1.5795 H   0  0  0  0  0  0  0  0  0  0  0  0
    4.5982    2.5593   -1.0501 H   0  0  0  0  0  0  0  0  0  0  0  0
    4.2221    2.8882    0.6617 H   0  0  0  0  0  0  0  0  0  0  0  0
    2.6213    3.6222   -0.5935 H   0  0  0  0  0  0  0  0  0  0  0  0
    0.9265    4.1373   -0.4187 H   0  0  0  0  0  0  0  0  0  0  0  0
  1  8  1  0  0  0  0
  1  2  2  0  0  0  0
  1 17  1  0  0  0  0
  2  3  1  0  0  0  0
  2 13  1  0  0  0  0
  3  7  1  0  0  0  0
  3  4  1  0  0  0  0
  4 12  1  0  0  0  0
  4  5  2  0  0  0  0
  5  6  1  0  0  0  0
  5  9  1  0  0  0  0
  6  7  2  0  0  0  0
  7  8  1  0  0  0  0
  9 10  1  0  0  0  0
  9 18  1  0  0  0  0
  9 19  1  0  0  0  0
 10 11  1  0  0  0  0
 10 20  1  0  0  0  0
 10 21  1  0  0  0  0
 11 12  1  0  0  0  0
 12 22  1  0  0  0  0
 12 23  1  0  0  0  0
 13 14  1  0  0  0  0
 13 24  1  0  0  0  0
 13 25  1  0  0  0  0
 14 15  2  0  0  0  0
 14 16  1  0  0  0  0
M  END
$$$$
ZINC64058092
 OpenBabel01252620473D

 52 55  0  0  1  0  0  0  0  0999 V2000
   -0.0157    1.3058    0.0092 C   0  0  0  0  0  0  0  0  0  0  0  0
    0.0021   -0.0041    0.0020 C   0  0  0  0  0  0  0  0  0  0  0  0
    1.3172   -0.7397   -0.0145 C   0  0  0  0  0  0  0  0  0  0  0  0
    1.3674   -1.6756    1.1115 N   0  0  0  0  0  0  0  0  0  0  0  0
    1.8326   -1.4255    2.3730 C   0  0  0  0  0  0  0  0  0  0  0  0
    1.6968   -2.5235    3.0613 N   0  0  0  0  0  0  0  0  0  0  0  0
    1.1815   -3.4438    2.3268 N   0  0  0  0  0  0  0  0  0  0  0  0
    0.9540   -2.9768    1.1210 C   0  0  0  0  0  0  0  0  0  0  0  0
    0.2514   -3.8628   -0.2303 S   0  0  0  0  0  1  0  0  0  0  0  0
    2.3980   -0.1216    2.8741 C   0  0  0  0  0  0  0  0  0  0  0  0
    1.2859    0.7240    3.4393 C   0  0  0  0  0  0  0  0  0  0  0  0
    0.1021    0.3037    3.4462 N   0  0  0  0  0  0  0  0  0  0  0  0
   -0.9861    1.1353    3.9998 C   0  0  2  0  0  0  0  0  0  0  0  0
   -1.5815    1.5847    3.2050 H   0  0  0  0  0  0  0  0  0  0  0  0
   -0.0113    2.4146    4.9076 S   0  0  0  0  0  0  0  0  0  0  0  0
    1.5761    2.1016    4.0186 C   0  0  0  0  0  0  0  0  0  0  0  0
   -1.8291    0.3627    4.9155 N   0  0  0  0  0  0  0  0  0  0  0  0
   -3.0342    0.8389    5.2860 C   0  0  0  0  0  0  0  0  0  0  0  0
   -3.4208    1.9072    4.8613 O   0  0  0  0  0  0  0  0  0  0  0  0
   -3.9015    0.0441    6.2279 C   0  0  0  0  0  0  0  0  0  0  0  0
   -5.2051    0.8030    6.4840 C   0  0  0  0  0  0  0  0  0  0  0  0
   -6.0481    0.0303    7.3997 N   0  0  0  0  0  0  0  0  0  0  0  0
   -6.9486   -0.8938    6.8900 C   0  0  0  0  0  0  0  0  0  0  0  0
   -7.0753   -1.1084    5.5261 C   0  0  0  0  0  0  0  0  0  0  0  0
   -7.9842   -2.0373    5.0600 C   0  0  0  0  0  0  0  0  0  0  0  0
   -8.7732   -2.7588    5.9429 C   0  0  0  0  0  0  0  0  0  0  0  0
   -8.6611   -2.5589    7.3028 C   0  0  0  0  0  0  0  0  0  0  0  0
   -7.7477   -1.6250    7.7860 C   0  0  0  0  0  0  0  0  0  0  0  0
   -7.5877   -1.3717    9.2291 C   0  0  0  0  0  0  0  0  0  0  0  0
   -8.2541   -1.9774   10.0462 O   0  0  0  0  0  0  0  0  0  0  0  0
   -6.6815   -0.4497    9.6205 N   0  0  0  0  0  0  0  0  0  0  0  0
   -6.5632   -0.2708   10.5665 H   0  0  0  0  0  0  0  0  0  0  0  0
   -5.9378    0.2196    8.7259 C   0  0  0  0  0  0  0  0  0  0  0  0
   -5.1330    1.0352    9.1323 O   0  0  0  0  0  0  0  0  0  0  0  0
    0.9122    1.8585    0.0033 H   0  0  0  0  0  0  0  0  0  0  0  0
   -0.9582    1.8330    0.0166 H   0  0  0  0  0  0  0  0  0  0  0  0
   -0.9258   -0.5567    0.0079 H   0  0  0  0  0  0  0  0  0  0  0  0
    1.4134   -1.2911   -0.9498 H   0  0  0  0  0  0  0  0  0  0  0  0
    2.1349   -0.0241    0.0711 H   0  0  0  0  0  0  0  0  0  0  0  0
    3.1347   -0.3202    3.6525 H   0  0  0  0  0  0  0  0  0  0  0  0
    2.8745    0.4087    2.0496 H   0  0  0  0  0  0  0  0  0  0  0  0
    2.4189    2.0716    4.7091 H   0  0  0  0  0  0  0  0  0  0  0  0
    1.7384    2.8368    3.2304 H   0  0  0  0  0  0  0  0  0  0  0  0
   -1.5200   -0.4917    5.2551 H   0  0  0  0  0  0  0  0  0  0  0  0
   -4.1267   -0.9254    5.7837 H   0  0  0  0  0  0  0  0  0  0  0  0
   -3.3747   -0.1019    7.1710 H   0  0  0  0  0  0  0  0  0  0  0  0
   -4.9798    1.7725    6.9283 H   0  0  0  0  0  0  0  0  0  0  0  0
   -5.7318    0.9490    5.5410 H   0  0  0  0  0  0  0  0  0  0  0  0
   -6.4655   -0.5507    4.8307 H   0  0  0  0  0  0  0  0  0  0  0  0
   -8.0818   -2.2034    3.9973 H   0  0  0  0  0  0  0  0  0  0  0  0
   -9.4802   -3.4815    5.5632 H   0  0  0  0  0  0  0  0  0  0  0  0
   -9.2768   -3.1226    7.9881 H   0  0  0  0  0  0  0  0  0  0  0  0
  1  2  2  0  0  0  0
  1 35  1  0  0  0  0
  1 36  1  0  0  0  0
  2  3  1  0  0  0  0
  2 37  1  0  0  0  0
  3 38  1  0  0  0  0
  3 39  1  0  0  0  0
  3  4  1  0  0  0  0
  4  8  1  0  0  0  0
  4  5  1  0  0  0  0
  5 10  1  0  0  0  0
  5  6  2  0  0  0  0
  6  7  1  0  0  0  0
  7  8  2  0  0  0  0
  8  9  1  0  0  0  0
 10 11  1  0  0  0  0
 10 40  1  0  0  0  0
 10 41  1  0  0  0  0
 11 16  1  0  0  0  0
 11 12  2  0  0  0  0
 12 13  1  0  0  0  0
 13 14  1  6  0  0  0
 13 15  1  0  0  0  0
 13 17  1  0  0  0  0
 15 16  1  0  0  0  0
 16 42  1  0  0  0  0
 16 43  1  0  0  0  0
 17 18  1  0  0  0  0
 17 44  1  0  0  0  0
 18 19  2  0  0  0  0
 18 20  1  0  0  0  0
 20 21  1  0  0  0  0
 20 45  1  0  0  0  0
 20 46  1  0  0  0  0
 21 22  1  0  0  0  0
 21 47  1  0  0  0  0
 21 48  1  0  0  0  0
 22 33  1  0  0  0  0
 22 23  1  0  0  0  0
 23 28  2  0  0  0  0
 23 24  1  0  0  0  0
 24 25  2  0  0  0  0
 24 49  1  0  0  0  0
 25 26  1  0  0  0  0
 25 50  1  0  0  0  0
 26 27  2  0  0  0  0
 26 51  1  0  0  0  0
 27 28  1  0  0  0  0
 27 52  1  0  0  0  0
 28 29  1  0  0  0  0
 29 30  2  0  0  0  0
 29 31  1  0  0  0  0
 31 32  1  0  0  0  0
 31 33  1  0  0  0  0
 33 34  2  0  0  0  0
M  END
$$$$
ZINC37729262
 OpenBabel01252620473D

 27 27  0  0  1  0  0  0  0  0999 V2000
   -0.0187    1.5258    0.0104 C   0  0  0  0  0  0  0  0  0  0  0  0
    0.0021   -0.0041    0.0020 C   0  0  0  0  0  0  0  0  0  0  0  0
   -1.4333   -0.5336    0.0129 C   0  0  2  0  0  0  0  0  0  0  0  0
   -1.9862   -0.1019   -0.8214 H   0  0  0  0  0  0  0  0  0  0  0  0
   -2.1103   -0.1453    1.3289 C   0  0  0  0  0  0  0  0  0  0  0  0
   -1.4159   -2.0348   -0.1192 C   0  0  0  0  0  0  0  0  0  0  0  0
   -0.8512   -2.8743    0.7013 N   0  0  0  0  0  0  0  0  0  0  0  0
   -1.0356   -4.0751    0.2775 N   0  0  0  0  0  0  0  0  0  0  0  0
   -1.7243   -4.0424   -0.8278 C   0  0  0  0  0  0  0  0  0  0  0  0
   -1.9851   -2.7531   -1.1017 O   0  0  0  0  0  0  0  0  0  0  0  0
   -2.1544   -5.2326   -1.6460 C   0  0  0  0  0  0  0  0  0  0  0  0
   -3.5237   -5.7154   -1.1634 C   0  0  0  0  0  0  0  0  0  0  0  0
   -3.9538   -6.9055   -1.9817 C   0  0  0  0  0  0  0  0  0  0  0  0
   -3.2321   -7.3285   -2.8686 O   0  0  0  0  0  0  0  0  0  0  0  0
   -5.0235   -7.4455   -1.7567 O   0  0  0  0  0  1  0  0  0  0  0  0
    1.0039    1.9031    0.0027 H   0  0  0  0  0  0  0  0  0  0  0  0
   -0.5459    1.8868   -0.8726 H   0  0  0  0  0  0  0  0  0  0  0  0
   -0.5289    1.8773    0.9072 H   0  0  0  0  0  0  0  0  0  0  0  0
    0.5123   -0.3556   -0.8948 H   0  0  0  0  0  0  0  0  0  0  0  0
    0.5293   -0.3651    0.8851 H   0  0  0  0  0  0  0  0  0  0  0  0
   -3.1329   -0.5225    1.3366 H   0  0  0  0  0  0  0  0  0  0  0  0
   -1.5574   -0.5770    2.1631 H   0  0  0  0  0  0  0  0  0  0  0  0
   -2.1228    0.9405    1.4244 H   0  0  0  0  0  0  0  0  0  0  0  0
   -2.2191   -4.9474   -2.6961 H   0  0  0  0  0  0  0  0  0  0  0  0
   -1.4253   -6.0348   -1.5317 H   0  0  0  0  0  0  0  0  0  0  0  0
   -3.4590   -6.0006   -0.1134 H   0  0  0  0  0  0  0  0  0  0  0  0
   -4.2528   -4.9132   -1.2778 H   0  0  0  0  0  0  0  0  0  0  0  0
  1  2  1  0  0  0  0
  1 16  1  0  0  0  0
  1 17  1  0  0  0  0
  1 18  1  0  0  0  0
  2  3  1  0  0  0  0
  2 19  1  0  0  0  0
  2 20  1  0  0  0  0
  3  4  1  6  0  0  0
  3  5  1  0  0  0  0
  3  6  1  0  0  0  0
  5 21  1  0  0  0  0
  5 22  1  0  0  0  0
  5 23  1  0  0  0  0
  6 10  1  0  0  0  0
  6  7  2  0  0  0  0
  7  8  1  0  0  0  0
  8  9  2  0  0  0  0
  9 10  1  0  0  0  0
  9 11  1  0  0  0  0
 11 12  1  0  0  0  0
 11 24  1  0  0  0  0
 11 25  1  0  0  0  0
 12 13  1  0  0  0  0
 12 26  1  0  0  0  0
 12 27  1  0  0  0  0
 13 14  2  0  0  0  0
 13 15  1  0  0  0  0
M  END
$$$$
ZINC20323801
 OpenBabel01252620473D

 36 37  0  0  1  0  0  0  0  0999 V2000
   -0.8424    9.1003   -4.1936 C   0  0  0  0  0  0  0  0  0  0  0  0
   -0.1748    8.7925   -2.8517 C   0  0  2  0  0  0  0  0  0  0  0  0
   -0.4625    9.5307   -2.0886 H   0  0  0  0  0  0  0  0  0  0  0  0
    1.3224    8.7931   -3.0237 C   0  0  0  0  0  0  0  0  0  0  0  0
    1.9592    7.7963   -2.7772 O   0  0  0  0  0  0  0  0  0  0  0  0
    1.9484    9.9009   -3.4509 O   0  0  0  0  0  1  0  0  0  0  0  0
   -0.6116    7.4763   -2.3795 N   0  0  0  0  0  0  0  0  0  0  0  0
   -0.0670    6.2986   -2.7245 C   0  0  0  0  0  0  0  0  0  0  0  0
   -0.7682    5.3098   -2.0641 C   0  0  0  0  0  0  0  0  0  0  0  0
   -1.7725    5.9483   -1.3026 C   0  0  0  0  0  0  0  0  0  0  0  0
   -1.6671    7.2345   -1.4931 N   0  0  0  0  0  0  0  0  0  0  0  0
   -0.5199    3.8588   -2.1436 C   0  0  0  0  0  0  0  0  0  0  0  0
   -0.0056    3.3835   -3.1378 O   0  0  0  0  0  0  0  0  0  0  0  0
   -0.8628    3.0590   -1.1145 N   0  0  0  0  0  0  0  0  0  0  0  0
   -0.7516    1.5966   -1.2252 C   0  0  0  0  0  0  0  0  0  0  0  0
    0.0341    1.0753   -0.0173 C   0  0  0  0  0  0  0  0  0  0  0  0
   -0.5957    1.5584    1.2187 N   0  0  0  0  0  0  0  0  0  0  0  0
   -0.5490    3.0242    1.3029 C   0  0  0  0  0  0  0  0  0  0  0  0
   -1.3586    3.6254    0.1491 C   0  0  0  0  0  0  0  0  0  0  0  0
    0.0230    0.9428    2.4003 C   0  0  0  0  0  0  0  0  0  0  0  0
   -1.9352    9.0999   -4.0681 H   0  0  0  0  0  0  0  0  0  0  0  0
   -0.5575    8.3337   -4.9292 H   0  0  0  0  0  0  0  0  0  0  0  0
   -0.5144   10.0886   -4.5481 H   0  0  0  0  0  0  0  0  0  0  0  0
    0.7668    6.1519   -3.3951 H   0  0  0  0  0  0  0  0  0  0  0  0
   -2.4989    5.4577   -0.6716 H   0  0  0  0  0  0  0  0  0  0  0  0
   -1.7578    1.1523   -1.2384 H   0  0  0  0  0  0  0  0  0  0  0  0
   -0.2245    1.3383   -2.1555 H   0  0  0  0  0  0  0  0  0  0  0  0
    0.0319   -0.0247   -0.0254 H   0  0  0  0  0  0  0  0  0  0  0  0
    1.0705    1.4402   -0.0688 H   0  0  0  0  0  0  0  0  0  0  0  0
   -0.9778    3.3502    2.2620 H   0  0  0  0  0  0  0  0  0  0  0  0
    0.4955    3.3623    1.2345 H   0  0  0  0  0  0  0  0  0  0  0  0
   -1.2358    4.7184    0.1341 H   0  0  0  0  0  0  0  0  0  0  0  0
   -2.4236    3.3777    0.2690 H   0  0  0  0  0  0  0  0  0  0  0  0
   -0.4666    1.3214    3.3097 H   0  0  0  0  0  0  0  0  0  0  0  0
    1.0932    1.1958    2.4276 H   0  0  0  0  0  0  0  0  0  0  0  0
   -0.0943   -0.1497    2.3484 H   0  0  0  0  0  0  0  0  0  0  0  0
  1  2  1  0  0  0  0
  1 21  1  0  0  0  0
  1 22  1  0  0  0  0
  1 23  1  0  0  0  0
  2  3  1  1  0  0  0
  2  4  1  0  0  0  0
  2  7  1  0  0  0  0
  4  5  2  0  0  0  0
  4  6  1  0  0  0  0
  7 11  1  0  0  0  0
  7  8  1  0  0  0  0
  8  9  2  0  0  0  0
  8 24  1  0  0  0  0
  9 10  1  0  0  0  0
  9 12  1  0  0  0  0
 10 11  2  0  0  0  0
 10 25  1  0  0  0  0
 12 13  2  0  0  0  0
 12 14  1  0  0  0  0
 14 19  1  0  0  0  0
 14 15  1  0  0  0  0
 15 16  1  0  0  0  0
 15 26  1  0  0  0  0
 15 27  1  0  0  0  0
 16 17  1  0  0  0  0
 16 28  1  0  0  0  0
 16 29  1  0  0  0  0
 17 18  1  0  0  0  0
 17 20  1  0  0  0  0
 18 19  1  0  0  0  0
 18 30  1  0  0  0  0
 18 31  1  0  0  0  0
 19 32  1  0  0  0  0
 19 33  1  0  0  0  0
 20 34  1  0  0  0  0
 20 35  1  0  0  0  0
 20 36  1  0  0  0  0
M  END
$$$$
ZINC64091803
 OpenBabel01252620473D

 35 36  0  0  0  0  0  0  0  0999 V2000
    1.3020   -1.0716    4.0454 C   0  0  0  0  0  0  0  0  0  0  0  0
    0.9053   -1.7704    2.7705 C   0  0  0  0  0  0  0  0  0  0  0  0
    1.1875   -3.0983    2.4379 C   0  0  0  0  0  0  0  0  0  0  0  0
    0.6299   -3.2883    1.1841 C   0  0  0  0  0  0  0  0  0  0  0  0
    0.0566   -2.0967    0.8371 N   0  0  0  0  0  0  0  0  0  0  0  0
   -0.4135   -1.9234    0.0066 H   0  0  0  0  0  0  0  0  0  0  0  0
    0.2306   -1.2433    1.7811 N   0  0  0  0  0  0  0  0  0  0  0  0
    0.6505   -4.5234    0.3867 C   0  0  0  0  0  0  0  0  0  0  0  0
    1.2004   -5.5182    0.8203 O   0  0  0  0  0  0  0  0  0  0  0  0
    0.0601   -4.5535   -0.8245 N   0  0  0  0  0  0  0  0  0  0  0  0
    0.1623   -5.6963   -1.6239 C   0  0  0  0  0  0  0  0  0  0  0  0
    0.2558   -5.5739   -3.0043 C   0  0  0  0  0  0  0  0  0  0  0  0
    0.3566   -6.7046   -3.7909 C   0  0  0  0  0  0  0  0  0  0  0  0
    0.3644   -7.9575   -3.2057 C   0  0  0  0  0  0  0  0  0  0  0  0
    0.2714   -8.0828   -1.8317 C   0  0  0  0  0  0  0  0  0  0  0  0
    0.1762   -6.9559   -1.0389 C   0  0  0  0  0  0  0  0  0  0  0  0
    0.4739   -9.1890   -4.0673 C   0  0  0  0  0  0  0  0  0  0  0  0
    2.2226   -9.6161   -4.2921 S   0  0  0  0  0  0  0  0  0  0  0  0
    2.8475   -8.5767   -5.0325 O   0  0  0  0  0  0  0  0  0  0  0  0
    2.7609   -9.9854   -3.0299 O   0  0  0  0  0  0  0  0  0  0  0  0
    2.1423  -11.0967   -5.3370 C   0  0  0  0  0  0  0  0  0  0  0  0
    2.1304   -4.3654    3.4778 Br  0  0  0  0  0  0  0  0  0  0  0  0
    0.5185   -1.2042    4.7914 H   0  0  0  0  0  0  0  0  0  0  0  0
    2.2340   -1.4967    4.4178 H   0  0  0  0  0  0  0  0  0  0  0  0
    1.4405   -0.0084    3.8490 H   0  0  0  0  0  0  0  0  0  0  0  0
   -0.4356   -3.7825   -1.1417 H   0  0  0  0  0  0  0  0  0  0  0  0
    0.2494   -4.5957   -3.4619 H   0  0  0  0  0  0  0  0  0  0  0  0
    0.4290   -6.6102   -4.8643 H   0  0  0  0  0  0  0  0  0  0  0  0
    0.2778   -9.0627   -1.3777 H   0  0  0  0  0  0  0  0  0  0  0  0
    0.1085   -7.0543    0.0345 H   0  0  0  0  0  0  0  0  0  0  0  0
   -0.0432  -10.0178   -3.5838 H   0  0  0  0  0  0  0  0  0  0  0  0
    0.0197   -8.9944   -5.0388 H   0  0  0  0  0  0  0  0  0  0  0  0
    1.6447  -10.8525   -6.2756 H   0  0  0  0  0  0  0  0  0  0  0  0
    3.1523  -11.4514   -5.5428 H   0  0  0  0  0  0  0  0  0  0  0  0
    1.5818  -11.8760   -4.8206 H   0  0  0  0  0  0  0  0  0  0  0  0
  1  2  1  0  0  0  0
  1 23  1  0  0  0  0
  1 24  1  0  0  0  0
  1 25  1  0  0  0  0
  2  7  2  0  0  0  0
  2  3  1  0  0  0  0
  3  4  2  0  0  0  0
  3 22  1  0  0  0  0
  4  5  1  0  0  0  0
  4  8  1  0  0  0  0
  5  6  1  0  0  0  0
  5  7  1  0  0  0  0
  8  9  2  0  0  0  0
  8 10  1  0  0  0  0
 10 11  1  0  0  0  0
 10 26  1  0  0  0  0
 11 16  2  0  0  0  0
 11 12  1  0  0  0  0
 12 13  2  0  0  0  0
 12 27  1  0  0  0  0
 13 14  1  0  0  0  0
 13 28  1  0  0  0  0
 14 15  2  0  0  0  0
 14 17  1  0  0  0  0
 15 16  1  0  0  0  0
 15 29  1  0  0  0  0
 16 30  1  0  0  0  0
 17 18  1  0  0  0  0
 17 31  1  0  0  0  0
 17 32  1  0  0  0  0
 18 19  2  0  0  0  0
 18 20  2  0  0  0  0
 18 21  1  0  0  0  0
 21 33  1  0  0  0  0
 21 34  1  0  0  0  0
 21 35  1  0  0  0  0
M  END
$$$$
ZINC45290299
 OpenBabel01252620473D

 60 63  0  0  1  0  0  0  0  0999 V2000
   -0.0173    1.4248    0.0099 C   0  0  0  0  0  0  0  0  0  0  0  0
    0.0021   -0.0041    0.0020 O   0  0  0  0  0  0  0  0  0  0  0  0
    0.6050   -0.6064   -1.0544 C   0  0  0  0  0  0  0  0  0  0  0  0
    0.6543   -1.9954   -1.1276 C   0  0  0  0  0  0  0  0  0  0  0  0
    1.2624   -2.6167   -2.1919 C   0  0  0  0  0  0  0  0  0  0  0  0
    1.8389   -1.8259   -3.2154 C   0  0  0  0  0  0  0  0  0  0  0  0
    1.7340   -0.4266   -3.0452 C   0  0  0  0  0  0  0  0  0  0  0  0
    1.1412    0.1283   -2.0172 N   0  0  0  0  0  0  0  0  0  0  0  0
    2.5554    0.1875   -4.4981 S   0  0  0  0  0  0  0  0  0  0  0  0
    2.9697   -1.3977   -5.2112 C   0  0  0  0  0  0  0  0  0  0  0  0
    2.4756   -2.2377   -4.3331 N   0  0  0  0  0  0  0  0  0  0  0  0
    3.6423   -1.6704   -6.3919 N   0  0  0  0  0  0  0  0  0  0  0  0
    4.0782   -0.6586   -7.1683 C   0  0  0  0  0  0  0  0  0  0  0  0
    3.8820    0.4904   -6.8337 O   0  0  0  0  0  0  0  0  0  0  0  0
    4.8095   -0.9552   -8.4521 C   0  0  1  0  0  0  0  0  0  0  0  0
    5.7116   -1.5264   -8.2329 H   0  0  0  0  0  0  0  0  0  0  0  0
    3.9036   -1.7684   -9.3789 C   0  0  0  0  0  0  0  0  0  0  0  0
    4.6866   -2.1758  -10.6287 C   0  0  0  0  0  0  0  0  0  0  0  0
    5.0109   -0.9299  -11.4786 C   0  0  0  0  0  0  0  0  0  0  0  0
    4.8737   -1.4214  -12.9410 C   0  0  0  0  0  0  0  0  0  0  0  0
    3.6602   -2.3811  -12.8666 C   0  0  0  0  0  0  0  0  0  0  0  0
    3.8278   -3.0985  -11.5112 C   0  0  0  0  0  0  0  0  0  0  0  0
    5.1859    0.3390   -9.1263 C   0  0  0  0  0  0  0  0  0  0  0  0
    4.2023    1.2370   -9.4965 C   0  0  0  0  0  0  0  0  0  0  0  0
    4.5475    2.4242  -10.1149 C   0  0  0  0  0  0  0  0  0  0  0  0
    5.8764    2.7135  -10.3627 C   0  0  0  0  0  0  0  0  0  0  0  0
    6.8600    1.8159   -9.9917 C   0  0  0  0  0  0  0  0  0  0  0  0
    6.5150    0.6307   -9.3694 C   0  0  0  0  0  0  0  0  0  0  0  0
    6.3163    4.2261  -11.1520 S   0  0  0  0  0  0  0  0  0  0  0  0
    7.5823    4.0131  -11.7613 O   0  0  0  0  0  0  0  0  0  0  0  0
    5.1767    4.6457  -11.8899 O   0  0  0  0  0  0  0  0  0  0  0  0
    6.5484    5.3513   -9.9593 N   0  0  0  0  0  0  0  0  0  0  0  0
    7.6448    5.1878   -9.0014 C   0  0  0  0  0  0  0  0  0  0  0  0
    7.8726    6.4869   -8.2723 C   0  0  0  0  0  0  0  0  0  0  0  0
    7.1831    7.4591   -8.5290 O   0  0  0  0  0  0  0  0  0  0  0  0
    8.7465    6.5656   -7.4257 O   0  0  0  0  0  1  0  0  0  0  0  0
    1.0053    1.8021    0.0021 H   0  0  0  0  0  0  0  0  0  0  0  0
   -0.5445    1.7859   -0.8732 H   0  0  0  0  0  0  0  0  0  0  0  0
   -0.5275    1.7763    0.9067 H   0  0  0  0  0  0  0  0  0  0  0  0
    0.2116   -2.5895   -0.3418 H   0  0  0  0  0  0  0  0  0  0  0  0
    1.3004   -3.6946   -2.2469 H   0  0  0  0  0  0  0  0  0  0  0  0
    3.7992   -2.5894   -6.6595 H   0  0  0  0  0  0  0  0  0  0  0  0
    3.5596   -2.6621   -8.8583 H   0  0  0  0  0  0  0  0  0  0  0  0
    3.0445   -1.1638   -9.6695 H   0  0  0  0  0  0  0  0  0  0  0  0
    5.6076   -2.6838  -10.3428 H   0  0  0  0  0  0  0  0  0  0  0  0
    4.2958   -0.1328  -11.2754 H   0  0  0  0  0  0  0  0  0  0  0  0
    6.0281   -0.5898  -11.2843 H   0  0  0  0  0  0  0  0  0  0  0  0
    4.6659   -0.5872  -13.6111 H   0  0  0  0  0  0  0  0  0  0  0  0
    5.7704   -1.9560  -13.2545 H   0  0  0  0  0  0  0  0  0  0  0  0
    2.7270   -1.8184  -12.8876 H   0  0  0  0  0  0  0  0  0  0  0  0
    3.6917   -3.1001  -13.6852 H   0  0  0  0  0  0  0  0  0  0  0  0
    4.3325   -4.0540  -11.6544 H   0  0  0  0  0  0  0  0  0  0  0  0
    2.8532   -3.2561  -11.0492 H   0  0  0  0  0  0  0  0  0  0  0  0
    3.1641    1.0110   -9.3029 H   0  0  0  0  0  0  0  0  0  0  0  0
    3.7790    3.1254  -10.4048 H   0  0  0  0  0  0  0  0  0  0  0  0
    7.8981    2.0417  -10.1856 H   0  0  0  0  0  0  0  0  0  0  0  0
    7.2838   -0.0690   -9.0762 H   0  0  0  0  0  0  0  0  0  0  0  0
    5.9585    6.1186   -9.8949 H   0  0  0  0  0  0  0  0  0  0  0  0
    7.3873    4.4088   -8.2839 H   0  0  0  0  0  0  0  0  0  0  0  0
    8.5532    4.9057   -9.5337 H   0  0  0  0  0  0  0  0  0  0  0  0
  1  2  1  0  0  0  0
  1 37  1  0  0  0  0
  1 38  1  0  0  0  0
  1 39  1  0  0  0  0
  2  3  1  0  0  0  0
  3  8  2  0  0  0  0
  3  4  1  0  0  0  0
  4  5  2  0  0  0  0
  4 40  1  0  0  0  0
  5  6  1  0  0  0  0
  5 41  1  0  0  0  0
  6 11  1  0  0  0  0
  6  7  2  0  0  0  0
  7  8  1  0  0  0  0
  7  9  1  0  0  0  0
  9 10  1  0  0  0  0
 10 11  2  0  0  0  0
 10 12  1  0  0  0  0
 12 13  1  0  0  0  0
 12 42  1  0  0  0  0
 13 14  2  0  0  0  0
 13 15  1  0  0  0  0
 15 16  1  1  0  0  0
 15 17  1  0  0  0  0
 15 23  1  0  0  0  0
 17 18  1  0  0  0  0
 17 43  1  0  0  0  0
 17 44  1  0  0  0  0
 18 22  1  0  0  0  0
 18 19  1  0  0  0  0
 18 45  1  0  0  0  0
 19 20  1  0  0  0  0
 19 46  1  0  0  0  0
 19 47  1  0  0  0  0
 20 21  1  0  0  0  0
 20 48  1  0  0  0  0
 20 49  1  0  0  0  0
 21 22  1  0  0  0  0
 21 50  1  0  0  0  0
 21 51  1  0  0  0  0
 22 52  1  0  0  0  0
 22 53  1  0  0  0  0
 23 28  2  0  0  0  0
 23 24  1  0  0  0  0
 24 25  2  0  0  0  0
 24 54  1  0  0  0  0
 25 26  1  0  0  0  0
 25 55  1  0  0  0  0
 26 27  2  0  0  0  0
 26 29  1  0  0  0  0
 27 28  1  0  0  0  0
 27 56  1  0  0  0  0
 28 57  1  0  0  0  0
 29 30  2  0  0  0  0
 29 31  2  0  0  0  0
 29 32  1  0  0  0  0
 32 33  1  0  0  0  0
 32 58  1  0  0  0  0
 33 34  1  0  0  0  0
 33 59  1  0  0  0  0
 33 60  1  0  0  0  0
 34 35  2  0  0  0  0
 34 36  1  0  0  0  0
M  END
$$$$
ZINC48517896
 OpenBabel01252620473D

 34 34  0  0  0  0  0  0  0  0999 V2000
   -0.0187    1.5258    0.0104 C   0  0  0  0  0  0  0  0  0  0  0  0
    0.0021   -0.0041    0.0020 C   0  0  0  0  0  0  0  0  0  0  0  0
    0.6709   -0.4649   -1.1737 O   0  0  0  0  0  0  0  0  0  0  0  0
    0.7457   -1.8880   -1.2798 C   0  0  0  0  0  0  0  0  0  0  0  0
    1.4779   -2.2655   -2.5691 C   0  0  0  0  0  0  0  0  0  0  0  0
    1.5580   -3.7892   -2.6827 C   0  0  0  0  0  0  0  0  0  0  0  0
    2.2791   -4.1611   -3.9526 C   0  0  0  0  0  0  0  0  0  0  0  0
    2.4691   -5.4598   -4.2649 O   0  5  0  0  0  0  0  0  0  0  0  0
    2.7149   -3.2374   -4.7412 N   0  0  0  0  0  0  0  0  0  0  0  0
    3.5074   -3.6460   -6.1367 S   0  0  0  0  0  0  0  0  0  0  0  0
    4.7234   -4.2686   -5.7458 O   0  0  0  0  0  0  0  0  0  0  0  0
    2.5548   -4.2913   -6.9706 O   0  0  0  0  0  0  0  0  0  0  0  0
    3.9480   -2.1434   -6.9447 C   0  0  0  0  0  0  0  0  0  0  0  0
    5.2798   -1.8111   -7.1076 C   0  0  0  0  0  0  0  0  0  0  0  0
    5.6257   -0.6317   -7.7417 C   0  0  0  0  0  0  0  0  0  0  0  0
    4.6386    0.2155   -8.2131 C   0  0  0  0  0  0  0  0  0  0  0  0
    3.3073   -0.1169   -8.0507 C   0  0  0  0  0  0  0  0  0  0  0  0
    2.9614   -1.2992   -7.4209 C   0  0  0  0  0  0  0  0  0  0  0  0
    1.1395   -1.7577   -7.2051 Br  0  0  0  0  0  0  0  0  0  0  0  0
    7.4476   -0.1767   -7.9640 Br  0  0  0  0  0  0  0  0  0  0  0  0
    1.0039    1.9031    0.0027 H   0  0  0  0  0  0  0  0  0  0  0  0
   -0.5459    1.8868   -0.8726 H   0  0  0  0  0  0  0  0  0  0  0  0
   -0.5289    1.8773    0.9072 H   0  0  0  0  0  0  0  0  0  0  0  0
    0.5293   -0.3651    0.8851 H   0  0  0  0  0  0  0  0  0  0  0  0
   -1.0205   -0.3814    0.0098 H   0  0  0  0  0  0  0  0  0  0  0  0
    1.2883   -2.2882   -0.4233 H   0  0  0  0  0  0  0  0  0  0  0  0
   -0.2614   -2.3044   -1.2986 H   0  0  0  0  0  0  0  0  0  0  0  0
    0.9353   -1.8654   -3.4255 H   0  0  0  0  0  0  0  0  0  0  0  0
    2.4851   -1.8492   -2.5502 H   0  0  0  0  0  0  0  0  0  0  0  0
    2.1006   -4.1894   -1.8262 H   0  0  0  0  0  0  0  0  0  0  0  0
    0.5508   -4.2056   -2.7015 H   0  0  0  0  0  0  0  0  0  0  0  0
    6.0503   -2.4723   -6.7393 H   0  0  0  0  0  0  0  0  0  0  0  0
    4.9087    1.1369   -8.7077 H   0  0  0  0  0  0  0  0  0  0  0  0
    2.5368    0.5446   -8.4183 H   0  0  0  0  0  0  0  0  0  0  0  0
  1  2  1  0  0  0  0
  1 21  1  0  0  0  0
  1 22  1  0  0  0  0
  1 23  1  0  0  0  0
  2  3  1  0  0  0  0
  2 24  1  0  0  0  0
  2 25  1  0  0  0  0
  3  4  1  0  0  0  0
  4  5  1  0  0  0  0
  4 26  1  0  0  0  0
  4 27  1  0  0  0  0
  5  6  1  0  0  0  0
  5 28  1  0  0  0  0
  5 29  1  0  0  0  0
  6  7  1  0  0  0  0
  6 30  1  0  0  0  0
  6 31  1  0  0  0  0
  7  8  1  0  0  0  0
  7  9  2  0  0  0  0
  9 10  1  0  0  0  0
 10 11  2  0  0  0  0
 10 12  2  0  0  0  0
 10 13  1  0  0  0  0
 13 18  2  0  0  0  0
 13 14  1  0  0  0  0
 14 15  2  0  0  0  0
 14 32  1  0  0  0  0
 15 16  1  0  0  0  0
 15 20  1  0  0  0  0
 16 17  2  0  0  0  0
 16 33  1  0  0  0  0
 17 18  1  0  0  0  0
 17 34  1  0  0  0  0
 18 19  1  0  0  0  0
M  CHG  1   8  -1
M  END
$$$$
ZINC35651737
 OpenBabel01252620473D

 26 27  0  0  0  0  0  0  0  0999 V2000
   -0.0167    1.3818    0.0096 C   0  0  0  0  0  0  0  0  0  0  0  0
    1.1915    2.0609    0.0018 C   0  0  0  0  0  0  0  0  0  0  0  0
    2.3197    1.3705   -0.0127 N   0  0  0  0  0  0  0  0  0  0  0  0
    2.3029    0.0457   -0.0197 C   0  0  0  0  0  0  0  0  0  0  0  0
    1.1654   -0.6335   -0.0129 N   0  0  0  0  0  0  0  0  0  0  0  0
    0.0021   -0.0041    0.0020 C   0  0  0  0  0  0  0  0  0  0  0  0
    3.5022   -0.6451   -0.0348 N   0  0  0  0  0  2  0  0  0  0  0  0
    3.5038   -2.3010   -0.0438 S   0  0  0  0  0  0  0  0  0  0  0  0
    2.9653   -2.7144    1.2046 O   0  0  0  0  0  0  0  0  0  0  0  0
    2.9415   -2.7010   -1.2860 O   0  0  0  0  0  0  0  0  0  0  0  0
    5.1874   -2.8203   -0.0626 C   0  0  0  0  0  0  0  0  0  0  0  0
    5.9648   -3.0508   -1.2023 C   0  0  0  0  0  0  0  0  0  0  0  0
    7.1582   -3.4216   -0.8149 N   0  0  0  0  0  0  0  0  0  0  0  0
    7.1781   -3.4387    0.5857 N   0  0  0  0  0  0  0  0  0  0  0  0
    5.9586   -3.0607    1.0230 C   0  0  0  0  0  0  0  0  0  0  0  0
    8.3223   -3.7979    1.4271 C   0  0  0  0  0  0  0  0  0  0  0  0
    8.8211   -5.1661    1.0394 C   0  0  0  0  0  0  0  0  0  0  0  0
    8.2717   -5.7839    0.1432 O   0  0  0  0  0  0  0  0  0  0  0  0
    9.7740   -5.6552    1.6218 O   0  0  0  0  0  1  0  0  0  0  0  0
   -0.9525    1.9208    0.0259 H   0  0  0  0  0  0  0  0  0  0  0  0
    1.2116    3.1407    0.0070 H   0  0  0  0  0  0  0  0  0  0  0  0
   -0.9219   -0.5632    0.0082 H   0  0  0  0  0  0  0  0  0  0  0  0
    5.6366   -2.9417   -2.2254 H   0  0  0  0  0  0  0  0  0  0  0  0
    5.6523   -2.9691    2.0546 H   0  0  0  0  0  0  0  0  0  0  0  0
    9.1193   -3.0676    1.2876 H   0  0  0  0  0  0  0  0  0  0  0  0
    8.0158   -3.8059    2.4731 H   0  0  0  0  0  0  0  0  0  0  0  0
  1  6  2  0  0  0  0
  1  2  1  0  0  0  0
  1 20  1  0  0  0  0
  2  3  2  0  0  0  0
  2 21  1  0  0  0  0
  3  4  1  0  0  0  0
  4  5  2  0  0  0  0
  4  7  1  0  0  0  0
  5  6  1  0  0  0  0
  6 22  1  0  0  0  0
  7  8  1  0  0  0  0
  8  9  2  0  0  0  0
  8 10  2  0  0  0  0
  8 11  1  0  0  0  0
 11 15  2  0  0  0  0
 11 12  1  0  0  0  0
 12 13  2  0  0  0  0
 12 23  1  0  0  0  0
 13 14  1  0  0  0  0
 14 15  1  0  0  0  0
 14 16  1  0  0  0  0
 15 24  1  0  0  0  0
 16 17  1  0  0  0  0
 16 25  1  0  0  0  0
 16 26  1  0  0  0  0
 17 18  2  0  0  0  0
 17 19  1  0  0  0  0
M  END
$$$$
ZINC02428420
 OpenBabel01252620473D

 35 36  0  0  1  0  0  0  0  0999 V2000
   -1.7338    2.3666    2.4791 C   0  0  0  0  0  0  0  0  0  0  0  0
   -0.8085    2.3390    1.3436 N   0  0  0  0  0  0  0  0  0  0  0  0
    0.2350    1.4814    1.1916 C   0  0  0  0  0  0  0  0  0  0  0  0
    0.8583    1.7518    0.0196 C   0  0  0  0  0  0  0  0  0  0  0  0
    0.1900    2.8200   -0.5868 C   0  0  0  0  0  0  0  0  0  0  0  0
   -0.8484    3.1799    0.2539 C   0  0  0  0  0  0  0  0  0  0  0  0
   -1.7837    4.2181    0.0318 C   0  0  0  0  0  0  0  0  0  0  0  0
   -3.1145    3.9322   -0.0428 C   0  0  0  0  0  0  0  0  0  0  0  0
   -3.7945    2.6265   -0.0540 C   0  0  0  0  0  0  0  0  0  0  0  0
   -3.1719    1.5816    0.0082 O   0  0  0  0  0  0  0  0  0  0  0  0
   -5.1145    2.6437   -0.1300 N   0  0  0  0  0  0  0  0  0  0  0  0
   -5.8000    3.8028   -0.2061 C   0  0  0  0  0  0  0  0  0  0  0  0
   -7.4929    4.0325   -0.3171 S   0  0  0  0  0  0  0  0  0  0  0  0
   -4.5128    5.0395   -0.1616 S   0  0  0  0  0  0  0  0  0  0  0  0
   -5.8481    1.3756   -0.1386 C   0  0  1  0  0  0  0  0  0  0  0  0
   -5.1429    0.5473   -0.0705 H   0  0  0  0  0  0  0  0  0  0  0  0
   -6.8038    1.3312    1.0554 C   0  0  0  0  0  0  0  0  0  0  0  0
   -5.9962    1.3228    2.3549 C   0  0  0  0  0  0  0  0  0  0  0  0
   -6.9375    1.2791    3.5310 C   0  0  0  0  0  0  0  0  0  0  0  0
   -8.1317    1.2569    3.3485 O   0  0  0  0  0  0  0  0  0  0  0  0
   -6.6366    1.2601   -1.4177 C   0  0  0  0  0  0  0  0  0  0  0  0
   -6.5905    2.1461   -2.2379 O   0  0  0  0  0  0  0  0  0  0  0  0
   -1.3575    3.0528    3.2378 H   0  0  0  0  0  0  0  0  0  0  0  0
   -2.7144    2.7014    2.1406 H   0  0  0  0  0  0  0  0  0  0  0  0
   -1.8180    1.3663    2.9036 H   0  0  0  0  0  0  0  0  0  0  0  0
    0.5183    0.7074    1.8894 H   0  0  0  0  0  0  0  0  0  0  0  0
    1.7193    1.2339   -0.3764 H   0  0  0  0  0  0  0  0  0  0  0  0
    0.4373    3.2774   -1.5333 H   0  0  0  0  0  0  0  0  0  0  0  0
   -1.4432    5.2371   -0.0788 H   0  0  0  0  0  0  0  0  0  0  0  0
   -7.4511    2.2080    1.0355 H   0  0  0  0  0  0  0  0  0  0  0  0
   -7.4126    0.4288    1.0001 H   0  0  0  0  0  0  0  0  0  0  0  0
   -5.3489    0.4461    2.3748 H   0  0  0  0  0  0  0  0  0  0  0  0
   -5.3874    2.2253    2.4102 H   0  0  0  0  0  0  0  0  0  0  0  0
   -6.4492    1.2648    4.7812 O   0  0  0  0  0  1  0  0  0  0  0  0
   -7.3902    0.1730   -1.6457 O   0  0  0  0  0  1  0  0  0  0  0  0
  1  2  1  0  0  0  0
  1 23  1  0  0  0  0
  1 24  1  0  0  0  0
  1 25  1  0  0  0  0
  2  6  1  0  0  0  0
  2  3  1  0  0  0  0
  3  4  2  0  0  0  0
  3 26  1  0  0  0  0
  4  5  1  0  0  0  0
  4 27  1  0  0  0  0
  5  6  2  0  0  0  0
  5 28  1  0  0  0  0
  6  7  1  0  0  0  0
  7  8  2  0  0  0  0
  7 29  1  0  0  0  0
  8 14  1  0  0  0  0
  8  9  1  0  0  0  0
  9 10  2  0  0  0  0
  9 11  1  0  0  0  0
 11 12  1  0  0  0  0
 11 15  1  0  0  0  0
 12 13  2  0  0  0  0
 12 14  1  0  0  0  0
 15 16  1  1  0  0  0
 15 17  1  0  0  0  0
 15 21  1  0  0  0  0
 17 18  1  0  0  0  0
 17 30  1  0  0  0  0
 17 31  1  0  0  0  0
 18 19  1  0  0  0  0
 18 32  1  0  0  0  0
 18 33  1  0  0  0  0
 19 20  2  0  0  0  0
 19 34  1  0  0  0  0
 21 22  2  0  0  0  0
 21 35  1  0  0  0  0
M  END
$$$$
ZINC22506798
 OpenBabel01252620473D

 58 60  0  0  1  0  0  0  0  0999 V2000
   -0.0326    1.5246    0.0425 C   0  0  0  0  0  0  0  0  0  0  0  0
   -0.0151    0.0178    0.0267 C   0  0  0  0  0  0  0  0  0  0  0  0
    0.0096   -0.6336    1.1284 N   0  0  0  0  0  0  0  0  0  0  0  0
    0.0258   -2.0344    1.1137 N   0  0  0  0  0  2  0  0  0  0  0  0
    0.0521   -2.7292    2.2888 C   0  0  0  0  0  0  0  0  0  0  0  0
    0.0597   -2.2485    3.5253 N   0  0  0  0  0  0  0  0  0  0  0  0
    0.0848   -2.9833    4.6033 C   0  0  0  0  0  0  0  0  0  0  0  0
    0.0905   -2.5008    5.7191 O   0  0  0  0  0  0  0  0  0  0  0  0
    0.1060   -4.4885    4.3659 C   0  0  2  0  0  0  0  0  0  0  0  0
    1.0180   -4.9403    4.7561 H   0  0  0  0  0  0  0  0  0  0  0  0
    0.0766   -4.5014    2.5238 S   0  0  0  0  0  0  0  0  0  0  0  0
   -1.1387   -5.1633    4.9459 C   0  0  0  0  0  0  0  0  0  0  0  0
   -1.0155   -6.6578    4.7967 C   0  0  0  0  0  0  0  0  0  0  0  0
   -0.0293   -7.1362    4.2776 O   0  0  0  0  0  0  0  0  0  0  0  0
   -2.0013   -7.4629    5.2401 N   0  0  0  0  0  0  0  0  0  0  0  0
   -1.9324   -8.8389    5.0163 C   0  0  0  0  0  0  0  0  0  0  0  0
   -0.7010   -9.4857    5.0457 C   0  0  0  0  0  0  0  0  0  0  0  0
   -0.6286  -10.8428    4.8255 C   0  0  0  0  0  0  0  0  0  0  0  0
   -1.7956  -11.5714    4.5719 C   0  0  0  0  0  0  0  0  0  0  0  0
   -3.0318  -10.9172    4.5431 C   0  0  0  0  0  0  0  0  0  0  0  0
   -3.0959   -9.5608    4.7700 C   0  0  0  0  0  0  0  0  0  0  0  0
   -1.7282  -12.9169    4.3525 N   0  0  0  0  0  0  0  0  0  0  0  0
   -2.8053  -13.5870    4.1188 N   0  0  0  0  0  0  0  0  0  0  0  0
   -2.7378  -14.9347    3.8992 C   0  0  0  0  0  0  0  0  0  0  0  0
   -1.5043  -15.5906    3.9327 C   0  0  0  0  0  0  0  0  0  0  0  0
   -1.4439  -16.9503    3.7101 C   0  0  0  0  0  0  0  0  0  0  0  0
   -2.6010  -17.6649    3.4536 C   0  0  0  0  0  0  0  0  0  0  0  0
   -3.8260  -17.0221    3.4183 C   0  0  0  0  0  0  0  0  0  0  0  0
   -3.9027  -15.6640    3.6456 C   0  0  0  0  0  0  0  0  0  0  0  0
   -0.0267   -0.7221   -1.2861 C   0  0  0  0  0  0  0  0  0  0  0  0
   -1.3486   -0.4569   -2.0093 C   0  0  0  0  0  0  0  0  0  0  0  0
   -1.4131   -1.3048   -3.2812 C   0  0  0  0  0  0  0  0  0  0  0  0
   -2.5154   -0.8255   -1.0909 C   0  0  0  0  0  0  0  0  0  0  0  0
   -1.4332    0.9272   -2.3547 O   0  0  0  0  0  0  0  0  0  0  0  0
    0.9907    1.9000    0.0305 H   0  0  0  0  0  0  0  0  0  0  0  0
   -0.5644    1.8911   -0.8355 H   0  0  0  0  0  0  0  0  0  0  0  0
   -0.5366    1.8727    0.9441 H   0  0  0  0  0  0  0  0  0  0  0  0
   -1.2305   -4.9100    6.0021 H   0  0  0  0  0  0  0  0  0  0  0  0
   -2.0227   -4.8164    4.4109 H   0  0  0  0  0  0  0  0  0  0  0  0
   -2.7586   -7.0860    5.7148 H   0  0  0  0  0  0  0  0  0  0  0  0
    0.1995   -8.9224    5.2413 H   0  0  0  0  0  0  0  0  0  0  0  0
    0.3277  -11.3441    4.8482 H   0  0  0  0  0  0  0  0  0  0  0  0
   -3.9350  -11.4761    4.3477 H   0  0  0  0  0  0  0  0  0  0  0  0
   -4.0504   -9.0557    4.7528 H   0  0  0  0  0  0  0  0  0  0  0  0
   -0.6004  -15.0341    4.1321 H   0  0  0  0  0  0  0  0  0  0  0  0
   -0.4914  -17.4586    3.7358 H   0  0  0  0  0  0  0  0  0  0  0  0
   -2.5476  -18.7295    3.2797 H   0  0  0  0  0  0  0  0  0  0  0  0
   -4.7247  -17.5861    3.2168 H   0  0  0  0  0  0  0  0  0  0  0  0
   -4.8599  -15.1644    3.6226 H   0  0  0  0  0  0  0  0  0  0  0  0
    0.8016   -0.3772   -1.9049 H   0  0  0  0  0  0  0  0  0  0  0  0
    0.0783   -1.7912   -1.1015 H   0  0  0  0  0  0  0  0  0  0  0  0
   -1.3486   -2.3605   -3.0178 H   0  0  0  0  0  0  0  0  0  0  0  0
   -2.3549   -1.1158   -3.7965 H   0  0  0  0  0  0  0  0  0  0  0  0
   -0.5819   -1.0421   -3.9356 H   0  0  0  0  0  0  0  0  0  0  0  0
   -2.4695   -0.2215   -0.1847 H   0  0  0  0  0  0  0  0  0  0  0  0
   -3.4572   -0.6366   -1.6062 H   0  0  0  0  0  0  0  0  0  0  0  0
   -2.4509   -1.8813   -0.8274 H   0  0  0  0  0  0  0  0  0  0  0  0
   -0.7235    1.2314   -2.9368 H   0  0  0  0  0  0  0  0  0  0  0  0
  1  2  1  0  0  0  0
  1 35  1  0  0  0  0
  1 36  1  0  0  0  0
  1 37  1  0  0  0  0
  2  3  2  0  0  0  0
  2 30  1  0  0  0  0
  3  4  1  0  0  0  0
  4  5  1  0  0  0  0
  5 11  1  0  0  0  0
  5  6  2  0  0  0  0
  6  7  1  0  0  0  0
  7  8  2  0  0  0  0
  7  9  1  0  0  0  0
  9 10  1  1  0  0  0
  9 11  1  0  0  0  0
  9 12  1  0  0  0  0
 12 13  1  0  0  0  0
 12 38  1  0  0  0  0
 12 39  1  0  0  0  0
 13 14  2  0  0  0  0
 13 15  1  0  0  0  0
 15 16  1  0  0  0  0
 15 40  1  0  0  0  0
 16 21  2  0  0  0  0
 16 17  1  0  0  0  0
 17 18  2  0  0  0  0
 17 41  1  0  0  0  0
 18 19  1  0  0  0  0
 18 42  1  0  0  0  0
 19 20  2  0  0  0  0
 19 22  1  0  0  0  0
 20 21  1  0  0  0  0
 20 43  1  0  0  0  0
 21 44  1  0  0  0  0
 22 23  2  0  0  0  0
 23 24  1  0  0  0  0
 24 29  2  0  0  0  0
 24 25  1  0  0  0  0
 25 26  2  0  0  0  0
 25 45  1  0  0  0  0
 26 27  1  0  0  0  0
 26 46  1  0  0  0  0
 27 28  2  0  0  0  0
 27 47  1  0  0  0  0
 28 29  1  0  0  0  0
 28 48  1  0  0  0  0
 29 49  1  0  0  0  0
 30 31  1  0  0  0  0
 30 50  1  0  0  0  0
 30 51  1  0  0  0  0
 31 32  1  0  0  0  0
 31 33  1  0  0  0  0
 31 34  1  0  0  0  0
 32 52  1  0  0  0  0
 32 53  1  0  0  0  0
 32 54  1  0  0  0  0
 33 55  1  0  0  0  0
 33 56  1  0  0  0  0
 33 57  1  0  0  0  0
 34 58  1  0  0  0  0
M  END
$$$$
ZINC50837209
 OpenBabel01252620473D

 51 52  0  0  0  0  0  0  0  0999 V2000
   -0.8460    1.2638   -0.3709 C   0  0  0  0  0  0  0  0  0  0  0  0
    0.0069    0.0446   -0.0146 C   0  0  0  0  0  0  0  0  0  0  0  0
    0.7109   -0.4543   -1.2501 C   0  0  0  0  0  0  0  0  0  0  0  0
    0.1023   -1.3979   -2.0573 C   0  0  0  0  0  0  0  0  0  0  0  0
    0.7448   -1.8572   -3.1903 C   0  0  0  0  0  0  0  0  0  0  0  0
    2.0035   -1.3705   -3.5186 C   0  0  0  0  0  0  0  0  0  0  0  0
    2.6120   -0.4228   -2.7056 C   0  0  0  0  0  0  0  0  0  0  0  0
    1.9617    0.0365   -1.5771 C   0  0  0  0  0  0  0  0  0  0  0  0
    2.6570   -1.8338   -4.6647 N   0  0  0  0  0  0  0  0  0  0  0  0
    4.0128   -1.9506   -4.6747 C   0  0  0  0  0  0  0  0  0  0  0  0
    4.7157   -1.7289   -3.5485 O   0  5  0  0  0  0  0  0  0  0  0  0
    4.6755   -2.3010   -5.8547 C   0  0  0  0  0  0  0  0  0  0  0  0
    3.9277   -2.5369   -7.0529 C   0  0  0  0  0  0  0  0  0  0  0  0
    3.3345   -2.7241   -8.0035 N   0  0  0  0  0  0  0  0  0  0  0  0
    6.0793   -2.4219   -5.8650 C   0  0  0  0  0  0  0  0  0  0  0  0
    6.7138   -2.2218   -4.8484 O   0  0  0  0  0  0  0  0  0  0  0  0
    6.7938   -2.7996   -7.1370 C   0  0  0  0  0  0  0  0  0  0  0  0
    8.2362   -2.8591   -6.8878 N   0  0  0  0  0  0  0  0  0  0  0  0
    9.0717   -1.8103   -7.0229 C   0  0  0  0  0  0  0  0  0  0  0  0
    8.7825   -0.6825   -7.3608 O   0  0  0  0  0  0  0  0  0  0  0  0
   10.4481   -2.3339   -6.6636 C   0  0  0  0  0  0  0  0  0  0  0  0
   10.2055   -3.7498   -6.3372 N   0  0  0  0  0  0  0  0  0  0  0  0
    8.8859   -3.9598   -6.4924 C   0  0  0  0  0  0  0  0  0  0  0  0
    8.3448   -5.0306   -6.2983 O   0  0  0  0  0  0  0  0  0  0  0  0
   11.3987   -2.2117   -7.8562 C   0  0  0  0  0  0  0  0  0  0  0  0
   10.8415   -3.0100   -9.0365 C   0  0  0  0  0  0  0  0  0  0  0  0
   11.0071   -1.5896   -5.4494 C   0  0  0  0  0  0  0  0  0  0  0  0
   10.1317   -1.8767   -4.2278 C   0  0  0  0  0  0  0  0  0  0  0  0
   -0.2057    2.0518   -0.7675 H   0  0  0  0  0  0  0  0  0  0  0  0
   -1.5847    0.9835   -1.1218 H   0  0  0  0  0  0  0  0  0  0  0  0
   -1.3552    1.6247    0.5227 H   0  0  0  0  0  0  0  0  0  0  0  0
    0.7456    0.3249    0.7363 H   0  0  0  0  0  0  0  0  0  0  0  0
   -0.6333   -0.7434    0.3820 H   0  0  0  0  0  0  0  0  0  0  0  0
   -0.8763   -1.7762   -1.8013 H   0  0  0  0  0  0  0  0  0  0  0  0
    0.2691   -2.5944   -3.8201 H   0  0  0  0  0  0  0  0  0  0  0  0
    3.5907   -0.0423   -2.9581 H   0  0  0  0  0  0  0  0  0  0  0  0
    2.4324    0.7766   -0.9469 H   0  0  0  0  0  0  0  0  0  0  0  0
    2.1439   -2.0719   -5.4527 H   0  0  0  0  0  0  0  0  0  0  0  0
    6.4430   -3.7747   -7.4750 H   0  0  0  0  0  0  0  0  0  0  0  0
    6.5881   -2.0535   -7.9045 H   0  0  0  0  0  0  0  0  0  0  0  0
   10.8678   -4.4026   -6.0612 H   0  0  0  0  0  0  0  0  0  0  0  0
   11.4937   -1.1633   -8.1392 H   0  0  0  0  0  0  0  0  0  0  0  0
   12.3779   -2.6042   -7.5821 H   0  0  0  0  0  0  0  0  0  0  0  0
    9.8623   -2.6175   -9.3107 H   0  0  0  0  0  0  0  0  0  0  0  0
   11.5187   -2.9230   -9.8861 H   0  0  0  0  0  0  0  0  0  0  0  0
   10.7465   -4.0584   -8.7535 H   0  0  0  0  0  0  0  0  0  0  0  0
   12.0252   -1.9262   -5.2540 H   0  0  0  0  0  0  0  0  0  0  0  0
   11.0108   -0.5182   -5.6500 H   0  0  0  0  0  0  0  0  0  0  0  0
   10.5300   -1.3464   -3.3627 H   0  0  0  0  0  0  0  0  0  0  0  0
    9.1136   -1.5401   -4.4232 H   0  0  0  0  0  0  0  0  0  0  0  0
   10.1280   -2.9480   -4.0272 H   0  0  0  0  0  0  0  0  0  0  0  0
  1  2  1  0  0  0  0
  1 29  1  0  0  0  0
  1 30  1  0  0  0  0
  1 31  1  0  0  0  0
  2  3  1  0  0  0  0
  2 32  1  0  0  0  0
  2 33  1  0  0  0  0
  3  8  2  0  0  0  0
  3  4  1  0  0  0  0
  4  5  2  0  0  0  0
  4 34  1  0  0  0  0
  5  6  1  0  0  0  0
  5 35  1  0  0  0  0
  6  7  2  0  0  0  0
  6  9  1  0  0  0  0
  7  8  1  0  0  0  0
  7 36  1  0  0  0  0
  8 37  1  0  0  0  0
  9 10  1  0  0  0  0
  9 38  1  0  0  0  0
 10 11  1  0  0  0  0
 10 12  2  0  0  0  0
 12 13  1  0  0  0  0
 12 15  1  0  0  0  0
 13 14  3  0  0  0  0
 15 16  2  0  0  0  0
 15 17  1  0  0  0  0
 17 18  1  0  0  0  0
 17 39  1  0  0  0  0
 17 40  1  0  0  0  0
 18 23  1  0  0  0  0
 18 19  1  0  0  0  0
 19 20  2  0  0  0  0
 19 21  1  0  0  0  0
 21 22  1  0  0  0  0
 21 25  1  0  0  0  0
 21 27  1  0  0  0  0
 22 23  1  0  0  0  0
 22 41  1  0  0  0  0
 23 24  2  0  0  0  0
 25 26  1  0  0  0  0
 25 42  1  0  0  0  0
 25 43  1  0  0  0  0
 26 44  1  0  0  0  0
 26 45  1  0  0  0  0
 26 46  1  0  0  0  0
 27 28  1  0  0  0  0
 27 47  1  0  0  0  0
 27 48  1  0  0  0  0
 28 49  1  0  0  0  0
 28 50  1  0  0  0  0
 28 51  1  0  0  0  0
M  CHG  1  11  -1
M  END
$$$$
ZINC61819650
 OpenBabel01252620473D

 38 39  0  0  0  0  0  0  0  0999 V2000
   -0.0049    1.5381    0.0091 C   0  0  0  0  0  0  0  0  0  0  0  0
    1.4322    2.0631   -0.0010 C   0  0  0  0  0  0  0  0  0  0  0  0
    2.1695    1.5545    1.2393 C   0  0  0  0  0  0  0  0  0  0  0  0
    2.1858    0.0245    1.2323 C   0  0  0  0  0  0  0  0  0  0  0  0
    0.7490   -0.5010    1.2406 C   0  0  0  0  0  0  0  0  0  0  0  0
    0.0117    0.0081    0.0005 C   0  0  0  0  0  0  0  0  0  0  0  0
    2.9036   -0.4718   -0.0248 C   0  0  0  0  0  0  0  0  0  0  0  0
    2.8913   -2.0035   -0.0447 C   0  0  0  0  0  0  0  0  0  0  0  0
    3.4667   -2.4978    1.2136 N   0  0  0  0  0  0  0  0  0  0  0  0
    2.9082   -2.0137    2.4834 C   0  0  0  0  0  0  0  0  0  0  0  0
    2.9210   -0.4819    2.4754 C   0  0  0  0  0  0  0  0  0  0  0  0
    4.4868   -3.3786    1.2032 C   0  0  0  0  0  0  0  0  0  0  0  0
    4.8782   -3.8425    0.1506 O   0  0  0  0  0  0  0  0  0  0  0  0
    5.1298   -3.7803    2.4729 C   0  0  0  0  0  0  0  0  0  0  0  0
    6.2113   -4.5757    2.4554 C   0  0  0  0  0  0  0  0  0  0  0  0
    6.8523   -4.9762    3.7213 C   0  0  0  0  0  0  0  0  0  0  0  0
    6.3990   -4.5840    4.7871 O   0  0  0  0  0  0  0  0  0  0  0  0
    7.8373   -5.7007    3.7054 O   0  0  0  0  0  1  0  0  0  0  0  0
   -0.5144    1.8910    0.9058 H   0  0  0  0  0  0  0  0  0  0  0  0
   -0.5306    1.9008   -0.8742 H   0  0  0  0  0  0  0  0  0  0  0  0
    1.9419    1.7094   -0.8972 H   0  0  0  0  0  0  0  0  0  0  0  0
    1.4210    3.1530    0.0044 H   0  0  0  0  0  0  0  0  0  0  0  0
    3.1932    1.9287    1.2323 H   0  0  0  0  0  0  0  0  0  0  0  0
    1.6597    1.9082    2.1355 H   0  0  0  0  0  0  0  0  0  0  0  0
    0.7609   -1.5910    1.2342 H   0  0  0  0  0  0  0  0  0  0  0  0
    0.2386   -0.1487    2.1369 H   0  0  0  0  0  0  0  0  0  0  0  0
   -1.0119   -0.3664    0.0071 H   0  0  0  0  0  0  0  0  0  0  0  0
    0.5218   -0.3446   -0.8959 H   0  0  0  0  0  0  0  0  0  0  0  0
    2.3922   -0.0925   -0.9094 H   0  0  0  0  0  0  0  0  0  0  0  0
    3.9341   -0.1165   -0.0194 H   0  0  0  0  0  0  0  0  0  0  0  0
    1.8656   -2.3594   -0.1420 H   0  0  0  0  0  0  0  0  0  0  0  0
    3.4860   -2.3628   -0.8844 H   0  0  0  0  0  0  0  0  0  0  0  0
    1.8837   -2.3699    2.5915 H   0  0  0  0  0  0  0  0  0  0  0  0
    3.5140   -2.3798    3.3123 H   0  0  0  0  0  0  0  0  0  0  0  0
    3.9515   -0.1269    2.4584 H   0  0  0  0  0  0  0  0  0  0  0  0
    2.4222   -0.1093    3.3701 H   0  0  0  0  0  0  0  0  0  0  0  0
    4.7294   -3.4339    3.4142 H   0  0  0  0  0  0  0  0  0  0  0  0
    6.6117   -4.9221    1.5141 H   0  0  0  0  0  0  0  0  0  0  0  0
  1  6  1  0  0  0  0
  1  2  1  0  0  0  0
  1 19  1  0  0  0  0
  1 20  1  0  0  0  0
  2  3  1  0  0  0  0
  2 21  1  0  0  0  0
  2 22  1  0  0  0  0
  3  4  1  0  0  0  0
  3 23  1  0  0  0  0
  3 24  1  0  0  0  0
  4 11  1  0  0  0  0
  4  5  1  0  0  0  0
  4  7  1  0  0  0  0
  5  6  1  0  0  0  0
  5 25  1  0  0  0  0
  5 26  1  0  0  0  0
  6 27  1  0  0  0  0
  6 28  1  0  0  0  0
  7  8  1  0  0  0  0
  7 29  1  0  0  0  0
  7 30  1  0  0  0  0
  8  9  1  0  0  0  0
  8 31  1  0  0  0  0
  8 32  1  0  0  0  0
  9 10  1  0  0  0  0
  9 12  1  0  0  0  0
 10 11  1  0  0  0  0
 10 33  1  0  0  0  0
 10 34  1  0  0  0  0
 11 35  1  0  0  0  0
 11 36  1  0  0  0  0
 12 13  2  0  0  0  0
 12 14  1  0  0  0  0
 14 15  2  0  0  0  0
 14 37  1  0  0  0  0
 15 16  1  0  0  0  0
 15 38  1  0  0  0  0
 16 17  2  0  0  0  0
 16 18  1  0  0  0  0
M  END
$$$$
ZINC40086019
 OpenBabel01252620473D

 65 67  0  0  1  0  0  0  0  0999 V2000
   -2.6066   -4.6167    7.6571 C   0  0  0  0  0  0  0  0  0  0  0  0
   -2.2437   -5.3450    6.3614 C   0  0  0  0  0  0  0  0  0  0  0  0
   -3.2968   -5.0418    5.2937 C   0  0  0  0  0  0  0  0  0  0  0  0
   -2.9579   -5.7221    4.0836 O   0  0  0  0  0  0  0  0  0  0  0  0
   -3.8402   -5.6293    3.0569 C   0  0  0  0  0  0  0  0  0  0  0  0
   -4.9572   -4.8092    3.1745 C   0  0  0  0  0  0  0  0  0  0  0  0
   -5.8544   -4.7119    2.1352 C   0  0  0  0  0  0  0  0  0  0  0  0
   -5.6414   -5.4390    0.9598 C   0  0  0  0  0  0  0  0  0  0  0  0
   -4.5172   -6.2622    0.8457 C   0  0  0  0  0  0  0  0  0  0  0  0
   -3.6219   -6.3498    1.8880 C   0  0  0  0  0  0  0  0  0  0  0  0
   -2.4067   -7.2324    1.7640 C   0  0  0  0  0  0  0  0  0  0  0  0
   -6.6012   -5.3380   -0.1571 C   0  0  0  0  0  0  0  0  0  0  0  0
   -6.4531   -6.0250   -1.1507 O   0  0  0  0  0  0  0  0  0  0  0  0
   -7.7331   -4.4100   -0.0694 C   0  0  0  0  0  0  0  0  0  0  0  0
   -9.0452   -4.7389   -0.0286 C   0  0  0  0  0  0  0  0  0  0  0  0
   -9.8529   -3.5042    0.0587 C   0  0  0  0  0  0  0  0  0  0  0  0
  -11.0661   -3.4670    0.1112 O   0  0  0  0  0  0  0  0  0  0  0  0
   -9.0460   -2.4277    0.0714 N   0  0  0  0  0  0  0  0  0  0  0  0
   -7.6592   -2.9025   -0.0007 C   0  0  2  0  0  0  0  0  0  0  0  0
   -7.1084   -2.5944    0.8880 H   0  0  0  0  0  0  0  0  0  0  0  0
   -6.9927   -2.3594   -1.2384 C   0  0  0  0  0  0  0  0  0  0  0  0
   -7.6796   -2.3364   -2.4380 C   0  0  0  0  0  0  0  0  0  0  0  0
   -7.0726   -1.8392   -3.5762 C   0  0  0  0  0  0  0  0  0  0  0  0
   -5.7730   -1.3622   -3.5162 C   0  0  0  0  0  0  0  0  0  0  0  0
   -5.0818   -1.3850   -2.3088 C   0  0  0  0  0  0  0  0  0  0  0  0
   -5.6977   -1.8802   -1.1706 C   0  0  0  0  0  0  0  0  0  0  0  0
   -3.8061   -0.9180   -2.2448 O   0  0  0  0  0  0  0  0  0  0  0  0
   -3.1189   -1.0760   -1.0019 C   0  0  0  0  0  0  0  0  0  0  0  0
   -5.1743   -0.8733   -4.6351 O   0  0  0  0  0  0  0  0  0  0  0  0
   -9.4755   -1.0292    0.1499 C   0  0  0  0  0  0  0  0  0  0  0  0
   -9.5641   -0.6045    1.6171 C   0  0  0  0  0  0  0  0  0  0  0  0
   -8.2600   -0.6327    2.2006 O   0  0  0  0  0  0  0  0  0  0  0  0
   -8.2309   -0.2507    3.5773 C   0  0  0  0  0  0  0  0  0  0  0  0
   -6.7925   -0.3173    4.0948 C   0  0  0  0  0  0  0  0  0  0  0  0
   -5.9965    0.6558    3.4155 O   0  0  0  0  0  0  0  0  0  0  0  0
   -9.5391   -5.9981   -0.0623 O   0  5  0  0  0  0  0  0  0  0  0  0
   -1.8563   -4.8327    8.4177 H   0  0  0  0  0  0  0  0  0  0  0  0
   -2.6390   -3.5428    7.4733 H   0  0  0  0  0  0  0  0  0  0  0  0
   -3.5829   -4.9557    8.0032 H   0  0  0  0  0  0  0  0  0  0  0  0
   -1.2673   -5.0060    6.0152 H   0  0  0  0  0  0  0  0  0  0  0  0
   -2.2113   -6.4190    6.5451 H   0  0  0  0  0  0  0  0  0  0  0  0
   -4.2732   -5.3808    5.6399 H   0  0  0  0  0  0  0  0  0  0  0  0
   -3.3292   -3.9679    5.1100 H   0  0  0  0  0  0  0  0  0  0  0  0
   -5.1211   -4.2483    4.0827 H   0  0  0  0  0  0  0  0  0  0  0  0
   -6.7218   -4.0751    2.2275 H   0  0  0  0  0  0  0  0  0  0  0  0
   -4.3492   -6.8257   -0.0602 H   0  0  0  0  0  0  0  0  0  0  0  0
   -2.6471   -8.2339    2.1207 H   0  0  0  0  0  0  0  0  0  0  0  0
   -2.0993   -7.2828    0.7195 H   0  0  0  0  0  0  0  0  0  0  0  0
   -1.5947   -6.8188    2.3622 H   0  0  0  0  0  0  0  0  0  0  0  0
   -8.6925   -2.7079   -2.4861 H   0  0  0  0  0  0  0  0  0  0  0  0
   -7.6111   -1.8230   -4.5122 H   0  0  0  0  0  0  0  0  0  0  0  0
   -5.1648   -1.8956   -0.2314 H   0  0  0  0  0  0  0  0  0  0  0  0
   -3.0517   -2.1358   -0.7561 H   0  0  0  0  0  0  0  0  0  0  0  0
   -2.1157   -0.6581   -1.0858 H   0  0  0  0  0  0  0  0  0  0  0  0
   -3.6652   -0.5546   -0.2159 H   0  0  0  0  0  0  0  0  0  0  0  0
   -5.3061    0.0753   -4.7692 H   0  0  0  0  0  0  0  0  0  0  0  0
   -8.7538   -0.3978   -0.3683 H   0  0  0  0  0  0  0  0  0  0  0  0
  -10.4538   -0.9228   -0.3189 H   0  0  0  0  0  0  0  0  0  0  0  0
   -9.9681    0.4060    1.6790 H   0  0  0  0  0  0  0  0  0  0  0  0
  -10.2179   -1.2908    2.1552 H   0  0  0  0  0  0  0  0  0  0  0  0
   -8.6072    0.7671    3.6800 H   0  0  0  0  0  0  0  0  0  0  0  0
   -8.8570   -0.9297    4.1561 H   0  0  0  0  0  0  0  0  0  0  0  0
   -6.7817   -0.1124    5.1653 H   0  0  0  0  0  0  0  0  0  0  0  0
   -6.3860   -1.3118    3.9110 H   0  0  0  0  0  0  0  0  0  0  0  0
   -5.0705    0.6702    3.6939 H   0  0  0  0  0  0  0  0  0  0  0  0
  1  2  1  0  0  0  0
  1 37  1  0  0  0  0
  1 38  1  0  0  0  0
  1 39  1  0  0  0  0
  2  3  1  0  0  0  0
  2 40  1  0  0  0  0
  2 41  1  0  0  0  0
  3  4  1  0  0  0  0
  3 42  1  0  0  0  0
  3 43  1  0  0  0  0
  4  5  1  0  0  0  0
  5 10  2  0  0  0  0
  5  6  1  0  0  0  0
  6  7  2  0  0  0  0
  6 44  1  0  0  0  0
  7  8  1  0  0  0  0
  7 45  1  0  0  0  0
  8  9  2  0  0  0  0
  8 12  1  0  0  0  0
  9 10  1  0  0  0  0
  9 46  1  0  0  0  0
 10 11  1  0  0  0  0
 11 47  1  0  0  0  0
 11 48  1  0  0  0  0
 11 49  1  0  0  0  0
 12 13  2  0  0  0  0
 12 14  1  0  0  0  0
 14 19  1  0  0  0  0
 14 15  2  0  0  0  0
 15 16  1  0  0  0  0
 15 36  1  0  0  0  0
 16 17  2  0  0  0  0
 16 18  1  0  0  0  0
 18 19  1  0  0  0  0
 18 30  1  0  0  0  0
 19 20  1  1  0  0  0
 19 21  1  0  0  0  0
 21 26  2  0  0  0  0
 21 22  1  0  0  0  0
 22 23  2  0  0  0  0
 22 50  1  0  0  0  0
 23 24  1  0  0  0  0
 23 51  1  0  0  0  0
 24 25  2  0  0  0  0
 24 29  1  0  0  0  0
 25 26  1  0  0  0  0
 25 27  1  0  0  0  0
 26 52  1  0  0  0  0
 27 28  1  0  0  0  0
 28 53  1  0  0  0  0
 28 54  1  0  0  0  0
 28 55  1  0  0  0  0
 29 56  1  0  0  0  0
 30 31  1  0  0  0  0
 30 57  1  0  0  0  0
 30 58  1  0  0  0  0
 31 32  1  0  0  0  0
 31 59  1  0  0  0  0
 31 60  1  0  0  0  0
 32 33  1  0  0  0  0
 33 34  1  0  0  0  0
 33 61  1  0  0  0  0
 33 62  1  0  0  0  0
 34 35  1  0  0  0  0
 34 63  1  0  0  0  0
 34 64  1  0  0  0  0
 35 65  1  0  0  0  0
M  CHG  1  36  -1
M  END
$$$$
ZINC12504195
 OpenBabel01252620473D

 48 49  0  0  1  0  0  0  0  0999 V2000
   -2.4092    1.1103    0.9502 C   0  0  0  0  0  0  0  0  0  0  0  0
   -1.2231    1.9043    0.6836 O   0  0  0  0  0  0  0  0  0  0  0  0
   -0.0602    1.2435    0.5701 C   0  0  0  0  0  0  0  0  0  0  0  0
   -0.0344    0.0414    0.6895 O   0  0  0  0  0  0  0  0  0  0  0  0
    1.2120    2.0002    0.2876 C   0  0  0  0  0  0  0  0  0  0  0  0
    2.3637    1.0322    0.2017 C   0  0  2  0  0  0  0  0  0  0  0  0
    2.7089    0.6170   -0.9942 C   0  0  0  0  0  0  0  0  0  0  0  0
    3.7432   -0.2478   -1.3252 N   0  0  0  0  0  0  0  0  0  0  0  0
    4.3949   -1.0759   -0.2991 C   0  0  2  0  0  0  0  0  0  0  0  0
    3.7442   -1.9045   -0.0197 H   0  0  0  0  0  0  0  0  0  0  0  0
    4.6819   -0.0136    1.1489 S   0  0  0  0  0  0  0  0  0  0  0  0
    3.0123    0.6223    1.4932 C   0  0  0  0  0  0  0  0  0  0  0  0
    5.7253   -1.6137   -0.8300 C   0  0  1  0  0  0  0  0  0  0  0  0
    5.5554   -2.2011   -1.6212 H   0  0  0  0  0  0  0  0  0  0  0  0
    6.6054   -0.4610   -1.2398 C   0  0  0  0  0  0  0  0  0  0  0  0
    7.6791   -0.3031   -0.7101 O   0  0  0  0  0  0  0  0  0  0  0  0
    6.3924   -2.3885    0.2191 N   0  0  0  0  0  0  0  0  0  0  0  0
    7.2768   -3.3500   -0.1123 C   0  0  0  0  0  0  0  0  0  0  0  0
    7.5209   -3.5741   -1.2814 O   0  0  0  0  0  0  0  0  0  0  0  0
    7.9516   -4.1338    0.9489 C   0  0  0  0  0  0  0  0  0  0  0  0
    7.6899   -3.8935    2.2024 N   0  0  0  0  0  0  0  0  0  0  0  0
    8.4388   -4.5362    3.2178 O   0  0  0  0  0  0  0  0  0  0  0  0
    8.0448   -4.1799    4.5444 C   0  0  0  0  0  0  0  0  0  0  0  0
    8.9220   -5.1886    0.5853 C   0  0  0  0  0  0  0  0  0  0  0  0
    9.3769   -6.0681    1.5312 C   0  0  0  0  0  0  0  0  0  0  0  0
   10.4803   -7.0742    0.5481 S   0  0  0  0  0  0  0  0  0  0  0  0
   10.2351   -6.2271   -1.0062 C   0  0  0  0  0  0  0  0  0  0  0  0
    9.3689   -5.2918   -0.6656 N   0  0  0  0  0  0  0  0  0  0  0  0
   10.8045   -6.4841   -2.2421 N   0  0  0  0  0  0  0  0  0  0  0  0
    1.9037    1.1291   -2.1184 C   0  0  0  0  0  0  0  0  0  0  0  0
    0.9638    0.4825   -2.5368 O   0  0  0  0  0  0  0  0  0  0  0  0
   -2.5567    0.3948    0.1414 H   0  0  0  0  0  0  0  0  0  0  0  0
   -2.2838    0.5743    1.8910 H   0  0  0  0  0  0  0  0  0  0  0  0
   -3.2774    1.7658    1.0183 H   0  0  0  0  0  0  0  0  0  0  0  0
    1.1148    2.5341   -0.6577 H   0  0  0  0  0  0  0  0  0  0  0  0
    1.3962    2.7138    1.0907 H   0  0  0  0  0  0  0  0  0  0  0  0
    3.2199    1.5403    0.1077 H   0  0  0  0  0  0  0  0  0  0  0  0
    3.0807    1.4849    2.1561 H   0  0  0  0  0  0  0  0  0  0  0  0
    2.4167   -0.1570    1.9686 H   0  0  0  0  0  0  0  0  0  0  0  0
    6.2759    0.2238   -2.0072 H   0  0  0  0  0  0  0  0  0  0  0  0
    6.1975   -2.2096    1.1524 H   0  0  0  0  0  0  0  0  0  0  0  0
    8.6658   -4.7139    5.2637 H   0  0  0  0  0  0  0  0  0  0  0  0
    8.1687   -3.1060    4.6842 H   0  0  0  0  0  0  0  0  0  0  0  0
    6.9994   -4.4479    4.6973 H   0  0  0  0  0  0  0  0  0  0  0  0
    9.1348   -6.1360    2.5815 H   0  0  0  0  0  0  0  0  0  0  0  0
   10.5740   -5.9330   -3.0064 H   0  0  0  0  0  0  0  0  0  0  0  0
   11.4338   -7.2152   -2.3436 H   0  0  0  0  0  0  0  0  0  0  0  0
    2.2102    2.3144   -2.6819 O   0  0  0  0  0  1  0  0  0  0  0  0
  1  2  1  0  0  0  0
  1 32  1  0  0  0  0
  1 33  1  0  0  0  0
  1 34  1  0  0  0  0
  2  3  1  0  0  0  0
  3  4  2  0  0  0  0
  3  5  1  0  0  0  0
  5  6  1  0  0  0  0
  5 35  1  0  0  0  0
  5 36  1  0  0  0  0
  6 12  1  0  0  0  0
  6 37  1  6  0  0  0
  6  7  1  0  0  0  0
  7 30  1  0  0  0  0
  7  8  2  0  0  0  0
  8  9  1  0  0  0  0
  9 10  1  1  0  0  0
  9 11  1  0  0  0  0
  9 13  1  0  0  0  0
 11 12  1  0  0  0  0
 12 38  1  0  0  0  0
 12 39  1  0  0  0  0
 13 14  1  6  0  0  0
 13 15  1  0  0  0  0
 13 17  1  0  0  0  0
 15 16  2  0  0  0  0
 15 40  1  0  0  0  0
 17 18  1  0  0  0  0
 17 41  1  0  0  0  0
 18 19  2  0  0  0  0
 18 20  1  0  0  0  0
 20 21  2  0  0  0  0
 20 24  1  0  0  0  0
 21 22  1  0  0  0  0
 22 23  1  0  0  0  0
 23 42  1  0  0  0  0
 23 43  1  0  0  0  0
 23 44  1  0  0  0  0
 24 28  1  0  0  0  0
 24 25  2  0  0  0  0
 25 26  1  0  0  0  0
 25 45  1  0  0  0  0
 26 27  1  0  0  0  0
 27 28  2  0  0  0  0
 27 29  1  0  0  0  0
 29 46  1  0  0  0  0
 29 47  1  0  0  0  0
 30 31  2  0  0  0  0
 30 48  1  0  0  0  0
M  END
$$$$
ZINC41628427
 OpenBabel01252620473D

 43 45  0  0  1  0  0  0  0  0999 V2000
    0.3752    1.6476   -0.0616 C   0  0  0  0  0  0  0  0  0  0  0  0
    0.1131    0.1410   -0.0150 C   0  0  0  0  0  0  0  0  0  0  0  0
    0.6035   -0.5024   -1.3136 C   0  0  1  0  0  0  0  0  0  0  0  0
    1.6485   -0.2395   -1.4773 H   0  0  0  0  0  0  0  0  0  0  0  0
    0.4723   -2.0003   -1.2128 C   0  0  0  0  0  0  0  0  0  0  0  0
   -0.4694   -2.5628   -1.7305 O   0  0  0  0  0  0  0  0  0  0  0  0
    1.4013   -2.7149   -0.5475 N   0  0  0  0  0  0  0  0  0  0  0  0
    1.2802   -4.0973   -0.4545 C   0  0  0  0  0  0  0  0  0  0  0  0
    0.3450   -4.8851   -0.9476 N   0  0  0  0  0  0  0  0  0  0  0  0
    0.3694   -6.1371   -0.7788 N   0  0  0  0  0  0  0  0  0  0  0  0
    1.3576   -6.6722   -0.0902 C   0  0  0  0  0  0  0  0  0  0  0  0
    2.2948   -5.2043    0.3120 S   0  0  0  0  0  0  0  0  0  0  0  0
    1.6251   -8.1145    0.2551 C   0  0  0  0  0  0  0  0  0  0  0  0
   -0.3964    0.1001   -2.7021 S   0  0  0  0  0  0  0  0  0  0  0  0
    0.4180   -0.5450   -4.1253 C   0  0  0  0  0  0  0  0  0  0  0  0
   -0.1357   -0.3616   -5.3560 N   0  0  0  0  0  0  0  0  0  0  0  0
   -0.9693    0.1255   -5.4495 H   0  0  0  0  0  0  0  0  0  0  0  0
    0.4843   -0.8622   -6.4433 C   0  0  0  0  0  0  0  0  0  0  0  0
    0.0011   -0.7130   -7.5536 O   0  0  0  0  0  0  0  0  0  0  0  0
    1.6996   -1.5606   -6.2807 C   0  0  0  0  0  0  0  0  0  0  0  0
    2.2107   -1.7070   -5.0309 C   0  0  0  0  0  0  0  0  0  0  0  0
    1.5551   -1.1923   -3.9841 N   0  0  0  0  0  0  0  0  0  0  0  0
    3.5102   -2.4198   -4.7631 C   0  0  0  0  0  0  0  0  0  0  0  0
    3.8994   -3.2940   -5.9535 C   0  0  0  0  0  0  0  0  0  0  0  0
    3.8334   -2.4383   -7.2243 C   0  0  0  0  0  0  0  0  0  0  0  0
    2.3678   -2.1147   -7.5096 C   0  0  0  0  0  0  0  0  0  0  0  0
    1.4497    1.8288   -0.0900 H   0  0  0  0  0  0  0  0  0  0  0  0
   -0.0881    2.0696   -0.9535 H   0  0  0  0  0  0  0  0  0  0  0  0
   -0.0492    2.1179    0.8254 H   0  0  0  0  0  0  0  0  0  0  0  0
    0.6461   -0.2946    0.8302 H   0  0  0  0  0  0  0  0  0  0  0  0
   -0.9561   -0.0385    0.0983 H   0  0  0  0  0  0  0  0  0  0  0  0
    2.1544   -2.2651   -0.1335 H   0  0  0  0  0  0  0  0  0  0  0  0
    2.2351   -8.5680   -0.5261 H   0  0  0  0  0  0  0  0  0  0  0  0
    2.1543   -8.1682    1.2065 H   0  0  0  0  0  0  0  0  0  0  0  0
    0.6793   -8.6505    0.3347 H   0  0  0  0  0  0  0  0  0  0  0  0
    4.2943   -1.6834   -4.5866 H   0  0  0  0  0  0  0  0  0  0  0  0
    3.4007   -3.0462   -3.8778 H   0  0  0  0  0  0  0  0  0  0  0  0
    4.9131   -3.6705   -5.8167 H   0  0  0  0  0  0  0  0  0  0  0  0
    3.2051   -4.1301   -6.0375 H   0  0  0  0  0  0  0  0  0  0  0  0
    4.3913   -1.5140   -7.0742 H   0  0  0  0  0  0  0  0  0  0  0  0
    4.2572   -2.9918   -8.0623 H   0  0  0  0  0  0  0  0  0  0  0  0
    1.8527   -3.0238   -7.8199 H   0  0  0  0  0  0  0  0  0  0  0  0
    2.3118   -1.3789   -8.3118 H   0  0  0  0  0  0  0  0  0  0  0  0
  1  2  1  0  0  0  0
  1 27  1  0  0  0  0
  1 28  1  0  0  0  0
  1 29  1  0  0  0  0
  2  3  1  0  0  0  0
  2 30  1  0  0  0  0
  2 31  1  0  0  0  0
  3  4  1  6  0  0  0
  3  5  1  0  0  0  0
  3 14  1  0  0  0  0
  5  6  2  0  0  0  0
  5  7  1  0  0  0  0
  7  8  1  0  0  0  0
  7 32  1  0  0  0  0
  8 12  1  0  0  0  0
  8  9  2  0  0  0  0
  9 10  1  0  0  0  0
 10 11  2  0  0  0  0
 11 12  1  0  0  0  0
 11 13  1  0  0  0  0
 13 33  1  0  0  0  0
 13 34  1  0  0  0  0
 13 35  1  0  0  0  0
 14 15  1  0  0  0  0
 15 22  2  0  0  0  0
 15 16  1  0  0  0  0
 16 17  1  0  0  0  0
 16 18  1  0  0  0  0
 18 19  2  0  0  0  0
 18 20  1  0  0  0  0
 20 26  1  0  0  0  0
 20 21  2  0  0  0  0
 21 22  1  0  0  0  0
 21 23  1  0  0  0  0
 23 24  1  0  0  0  0
 23 36  1  0  0  0  0
 23 37  1  0  0  0  0
 24 25  1  0  0  0  0
 24 38  1  0  0  0  0
 24 39  1  0  0  0  0
 25 26  1  0  0  0  0
 25 40  1  0  0  0  0
 25 41  1  0  0  0  0
 26 42  1  0  0  0  0
 26 43  1  0  0  0  0
M  END
$$$$
ZINC49515697
 OpenBabel01252620473D

 39 39  0  0  0  0  0  0  0  0999 V2000
   -0.0173    1.4248    0.0099 C   0  0  0  0  0  0  0  0  0  0  0  0
    0.0021   -0.0041    0.0020 O   0  0  0  0  0  0  0  0  0  0  0  0
    0.6518   -0.5703   -1.1379 C   0  0  0  0  0  0  0  0  0  0  0  0
    0.6131   -2.0967   -1.0411 C   0  0  0  0  0  0  0  0  0  0  0  0
   -0.7418   -2.5446   -1.1169 O   0  0  0  0  0  0  0  0  0  0  0  0
   -0.8903   -3.9635   -1.0357 C   0  0  0  0  0  0  0  0  0  0  0  0
   -2.3736   -4.3271   -1.1270 C   0  0  0  0  0  0  0  0  0  0  0  0
   -2.5303   -5.8235   -1.0413 C   0  0  0  0  0  0  0  0  0  0  0  0
   -3.7590   -6.3777   -1.1004 O   0  5  0  0  0  0  0  0  0  0  0  0
   -1.4892   -6.5748   -0.9114 N   0  0  0  0  0  0  0  0  0  0  0  0
   -1.6613   -8.2192   -0.8172 S   0  0  0  0  0  0  0  0  0  0  0  0
   -2.3921   -8.4392    0.3814 O   0  0  0  0  0  0  0  0  0  0  0  0
   -2.2014   -8.5998   -2.0753 O   0  0  0  0  0  0  0  0  0  0  0  0
    0.0286   -8.8556   -0.6445 C   0  0  0  0  0  0  0  0  0  0  0  0
    0.8886   -8.3479   -1.8059 C   0  0  0  0  0  0  0  0  0  0  0  0
    2.2905   -8.9529   -1.6951 C   0  0  0  0  0  0  0  0  0  0  0  0
    2.1940  -10.3786   -1.6960 O   0  0  0  0  0  0  0  0  0  0  0  0
    1.4408  -10.9132   -0.6056 C   0  0  0  0  0  0  0  0  0  0  0  0
    0.0048  -10.3869   -0.6727 C   0  0  0  0  0  0  0  0  0  0  0  0
    1.0053    1.8021    0.0021 H   0  0  0  0  0  0  0  0  0  0  0  0
   -0.5445    1.7859   -0.8732 H   0  0  0  0  0  0  0  0  0  0  0  0
   -0.5275    1.7763    0.9067 H   0  0  0  0  0  0  0  0  0  0  0  0
    0.1385   -0.2506   -2.0447 H   0  0  0  0  0  0  0  0  0  0  0  0
    1.6883   -0.2344   -1.1694 H   0  0  0  0  0  0  0  0  0  0  0  0
    1.1847   -2.5275   -1.8631 H   0  0  0  0  0  0  0  0  0  0  0  0
    1.0473   -2.4117   -0.0922 H   0  0  0  0  0  0  0  0  0  0  0  0
   -0.3498   -4.4331   -1.8576 H   0  0  0  0  0  0  0  0  0  0  0  0
   -0.4873   -4.3173   -0.0867 H   0  0  0  0  0  0  0  0  0  0  0  0
   -2.9141   -3.8576   -0.3051 H   0  0  0  0  0  0  0  0  0  0  0  0
   -2.7767   -3.9734   -2.0760 H   0  0  0  0  0  0  0  0  0  0  0  0
    0.4517   -8.5148    0.3005 H   0  0  0  0  0  0  0  0  0  0  0  0
    0.4366   -8.6467   -2.7517 H   0  0  0  0  0  0  0  0  0  0  0  0
    0.9564   -7.2609   -1.7609 H   0  0  0  0  0  0  0  0  0  0  0  0
    2.8943   -8.6288   -2.5427 H   0  0  0  0  0  0  0  0  0  0  0  0
    2.7575   -8.6208   -0.7678 H   0  0  0  0  0  0  0  0  0  0  0  0
    1.4325  -12.0013   -0.6684 H   0  0  0  0  0  0  0  0  0  0  0  0
    1.8967  -10.6067    0.3359 H   0  0  0  0  0  0  0  0  0  0  0  0
   -0.5596  -10.7583    0.1828 H   0  0  0  0  0  0  0  0  0  0  0  0
   -0.4651  -10.7270   -1.5955 H   0  0  0  0  0  0  0  0  0  0  0  0
  1  2  1  0  0  0  0
  1 20  1  0  0  0  0
  1 21  1  0  0  0  0
  1 22  1  0  0  0  0
  2  3  1  0  0  0  0
  3  4  1  0  0  0  0
  3 23  1  0  0  0  0
  3 24  1  0  0  0  0
  4  5  1  0  0  0  0
  4 25  1  0  0  0  0
  4 26  1  0  0  0  0
  5  6  1  0  0  0  0
  6  7  1  0  0  0  0
  6 27  1  0  0  0  0
  6 28  1  0  0  0  0
  7  8  1  0  0  0  0
  7 29  1  0  0  0  0
  7 30  1  0  0  0  0
  8  9  1  0  0  0  0
  8 10  2  0  0  0  0
 10 11  1  0  0  0  0
 11 12  2  0  0  0  0
 11 13  2  0  0  0  0
 11 14  1  0  0  0  0
 14 19  1  0  0  0  0
 14 15  1  0  0  0  0
 14 31  1  0  0  0  0
 15 16  1  0  0  0  0
 15 32  1  0  0  0  0
 15 33  1  0  0  0  0
 16 17  1  0  0  0  0
 16 34  1  0  0  0  0
 16 35  1  0  0  0  0
 17 18  1  0  0  0  0
 18 19  1  0  0  0  0
 18 36  1  0  0  0  0
 18 37  1  0  0  0  0
 19 38  1  0  0  0  0
 19 39  1  0  0  0  0
M  CHG  1   9  -1
M  END
$$$$
ZINC50290410
 OpenBabel01252620473D

 25 26  0  0  0  0  0  0  0  0999 V2000
    1.0717   -0.4530   -0.7666 C   0  0  0  0  0  0  0  0  0  0  0  0
    2.2559    0.2577   -0.7792 C   0  0  0  0  0  0  0  0  0  0  0  0
    2.3766    1.4165   -0.0329 C   0  0  0  0  0  0  0  0  0  0  0  0
    1.3122    1.8663    0.7282 C   0  0  0  0  0  0  0  0  0  0  0  0
    0.1260    1.1593    0.7447 C   0  0  0  0  0  0  0  0  0  0  0  0
    0.0017   -0.0036   -0.0041 C   0  0  0  0  0  0  0  0  0  0  0  0
   -1.1996   -0.7216    0.0101 N   0  0  0  0  0  0  0  0  0  0  0  0
   -1.1832   -2.0648   -0.0990 C   0  0  0  0  0  0  0  0  0  0  0  0
   -0.1260   -2.6592   -0.1129 O   0  0  0  0  0  0  0  0  0  0  0  0
   -2.4783   -2.8281   -0.2038 C   0  0  0  0  0  0  0  0  0  0  0  0
   -2.8743   -3.7134    0.9796 C   0  0  0  0  0  0  0  0  0  0  0  0
   -2.3930   -4.3509   -0.3253 C   0  0  0  0  0  0  0  0  0  0  0  0
   -3.5847   -2.1312   -0.9529 C   0  0  0  0  0  0  0  0  0  0  0  0
   -3.3159   -1.2942   -1.7977 O   0  0  0  0  0  0  0  0  0  0  0  0
   -4.7487   -2.4045   -0.7142 O   0  0  0  0  0  1  0  0  0  0  0  0
    3.9995    2.3869   -0.0525 Br  0  0  0  0  0  0  0  0  0  0  0  0
    0.9765   -1.3551   -1.3529 H   0  0  0  0  0  0  0  0  0  0  0  0
    3.0885   -0.0916   -1.3718 H   0  0  0  0  0  0  0  0  0  0  0  0
    1.4093    2.7710    1.3100 H   0  0  0  0  0  0  0  0  0  0  0  0
   -0.7044    1.5107    1.3392 H   0  0  0  0  0  0  0  0  0  0  0  0
   -2.0440   -0.2524    0.0985 H   0  0  0  0  0  0  0  0  0  0  0  0
   -2.1981   -3.7436    1.8340 H   0  0  0  0  0  0  0  0  0  0  0  0
   -3.9353   -3.7918    1.2167 H   0  0  0  0  0  0  0  0  0  0  0  0
   -3.1373   -4.8487   -0.9467 H   0  0  0  0  0  0  0  0  0  0  0  0
   -1.4001   -4.8006   -0.3294 H   0  0  0  0  0  0  0  0  0  0  0  0
  1  6  2  0  0  0  0
  1  2  1  0  0  0  0
  1 17  1  0  0  0  0
  2  3  2  0  0  0  0
  2 18  1  0  0  0  0
  3  4  1  0  0  0  0
  3 16  1  0  0  0  0
  4  5  2  0  0  0  0
  4 19  1  0  0  0  0
  5  6  1  0  0  0  0
  5 20  1  0  0  0  0
  6  7  1  0  0  0  0
  7  8  1  0  0  0  0
  7 21  1  0  0  0  0
  8  9  2  0  0  0  0
  8 10  1  0  0  0  0
 10 12  1  0  0  0  0
 10 11  1  0  0  0  0
 10 13  1  0  0  0  0
 11 12  1  0  0  0  0
 11 22  1  0  0  0  0
 11 23  1  0  0  0  0
 12 24  1  0  0  0  0
 12 25  1  0  0  0  0
 13 14  2  0  0  0  0
 13 15  1  0  0  0  0
M  END
$$$$
ZINC13057612
 OpenBabel01252620473D

 50 52  0  0  1  0  0  0  0  0999 V2000
   -3.7154   -9.2967   -2.5923 C   0  0  0  0  0  0  0  0  0  0  0  0
   -3.4878   -7.9529   -1.9493 C   0  0  0  0  0  0  0  0  0  0  0  0
   -3.8699   -6.7556   -2.4752 C   0  0  0  0  0  0  0  0  0  0  0  0
   -3.4376   -5.7405   -1.5004 C   0  0  0  0  0  0  0  0  0  0  0  0
   -2.8259   -6.4465   -0.4643 C   0  0  0  0  0  0  0  0  0  0  0  0
   -2.8790   -7.7527   -0.7734 O   0  0  0  0  0  0  0  0  0  0  0  0
   -2.3285   -5.7650    0.5794 N   0  0  0  0  0  0  0  0  0  0  0  0
   -2.4029   -4.4650    0.6388 C   0  0  0  0  0  0  0  0  0  0  0  0
   -2.9903   -3.7259   -0.3344 N   0  0  0  0  0  0  0  0  0  0  0  0
   -3.5170   -4.3336   -1.4226 C   0  0  0  0  0  0  0  0  0  0  0  0
   -4.0449   -3.6849   -2.3096 O   0  0  0  0  0  0  0  0  0  0  0  0
   -3.0496   -2.2673   -0.2104 C   0  0  1  0  0  0  0  0  0  0  0  0
   -3.5499   -1.8485   -1.0835 H   0  0  0  0  0  0  0  0  0  0  0  0
   -3.8291   -1.8941    1.0521 C   0  0  0  0  0  0  0  0  0  0  0  0
   -1.6509   -1.7137   -0.1192 C   0  0  0  0  0  0  0  0  0  0  0  0
   -0.6983   -2.4637   -0.1543 O   0  0  0  0  0  0  0  0  0  0  0  0
   -1.4585   -0.3852    0.0014 N   0  0  0  0  0  0  0  0  0  0  0  0
   -0.1608    0.1390   -0.0217 C   0  0  0  0  0  0  0  0  0  0  0  0
    0.1504    1.2596    0.7374 C   0  0  0  0  0  0  0  0  0  0  0  0
    1.4314    1.7745    0.7131 C   0  0  0  0  0  0  0  0  0  0  0  0
    2.4049    1.1748   -0.0668 C   0  0  0  0  0  0  0  0  0  0  0  0
    2.0975    0.0583   -0.8240 C   0  0  0  0  0  0  0  0  0  0  0  0
    0.8176   -0.4607   -0.8033 C   0  0  0  0  0  0  0  0  0  0  0  0
    3.3399   -0.7025   -1.8151 S   0  0  0  0  0  0  0  0  0  0  0  0
    2.7182   -1.7949   -2.4780 O   0  0  0  0  0  0  0  0  0  0  0  0
    3.9943    0.3436   -2.5198 O   0  0  0  0  0  0  0  0  0  0  0  0
    4.4606   -1.3511   -0.7828 N   0  0  0  0  0  0  0  0  0  0  0  0
    4.2326   -2.6710   -0.1895 C   0  0  0  0  0  0  0  0  0  0  0  0
    5.6801   -0.6049   -0.4628 C   0  0  0  0  0  0  0  0  0  0  0  0
    4.0146    1.8242   -0.0946 Cl  0  0  0  0  0  0  0  0  0  0  0  0
   -4.5682   -6.5255   -3.7489 C   0  0  0  0  0  0  0  0  0  0  0  0
   -3.9304   -6.3509   -4.7689 O   0  0  0  0  0  0  0  0  0  0  0  0
   -3.3077  -10.0793   -1.9526 H   0  0  0  0  0  0  0  0  0  0  0  0
   -4.7849   -9.4583   -2.7275 H   0  0  0  0  0  0  0  0  0  0  0  0
   -3.2184   -9.3243   -3.5620 H   0  0  0  0  0  0  0  0  0  0  0  0
   -1.9853   -3.9585    1.4964 H   0  0  0  0  0  0  0  0  0  0  0  0
   -3.8732   -0.8089    1.1444 H   0  0  0  0  0  0  0  0  0  0  0  0
   -4.8408   -2.2945    0.9861 H   0  0  0  0  0  0  0  0  0  0  0  0
   -3.3288   -2.3129    1.9252 H   0  0  0  0  0  0  0  0  0  0  0  0
   -2.2193    0.2076    0.1043 H   0  0  0  0  0  0  0  0  0  0  0  0
   -0.6090    1.7281    1.3459 H   0  0  0  0  0  0  0  0  0  0  0  0
    1.6738    2.6461    1.3030 H   0  0  0  0  0  0  0  0  0  0  0  0
    0.5793   -1.3349   -1.3910 H   0  0  0  0  0  0  0  0  0  0  0  0
    4.7284   -3.4312   -0.7931 H   0  0  0  0  0  0  0  0  0  0  0  0
    4.6375   -2.6894    0.8223 H   0  0  0  0  0  0  0  0  0  0  0  0
    3.1623   -2.8745   -0.1563 H   0  0  0  0  0  0  0  0  0  0  0  0
    5.5043    0.0205    0.4124 H   0  0  0  0  0  0  0  0  0  0  0  0
    6.4894   -1.3042   -0.2530 H   0  0  0  0  0  0  0  0  0  0  0  0
    5.9539    0.0242   -1.3098 H   0  0  0  0  0  0  0  0  0  0  0  0
   -5.9156   -6.5082   -3.7853 O   0  0  0  0  0  1  0  0  0  0  0  0
  1  2  1  0  0  0  0
  1 33  1  0  0  0  0
  1 34  1  0  0  0  0
  1 35  1  0  0  0  0
  2  6  1  0  0  0  0
  2  3  2  0  0  0  0
  3  4  1  0  0  0  0
  3 31  1  0  0  0  0
  4 10  1  0  0  0  0
  4  5  2  0  0  0  0
  5  6  1  0  0  0  0
  5  7  1  0  0  0  0
  7  8  2  0  0  0  0
  8  9  1  0  0  0  0
  8 36  1  0  0  0  0
  9 10  1  0  0  0  0
  9 12  1  0  0  0  0
 10 11  2  0  0  0  0
 12 13  1  6  0  0  0
 12 14  1  0  0  0  0
 12 15  1  0  0  0  0
 14 37  1  0  0  0  0
 14 38  1  0  0  0  0
 14 39  1  0  0  0  0
 15 16  2  0  0  0  0
 15 17  1  0  0  0  0
 17 18  1  0  0  0  0
 17 40  1  0  0  0  0
 18 23  2  0  0  0  0
 18 19  1  0  0  0  0
 19 20  2  0  0  0  0
 19 41  1  0  0  0  0
 20 21  1  0  0  0  0
 20 42  1  0  0  0  0
 21 22  2  0  0  0  0
 21 30  1  0  0  0  0
 22 23  1  0  0  0  0
 22 24  1  0  0  0  0
 23 43  1  0  0  0  0
 24 25  2  0  0  0  0
 24 26  2  0  0  0  0
 24 27  1  0  0  0  0
 27 28  1  0  0  0  0
 27 29  1  0  0  0  0
 28 44  1  0  0  0  0
 28 45  1  0  0  0  0
 28 46  1  0  0  0  0
 29 47  1  0  0  0  0
 29 48  1  0  0  0  0
 29 49  1  0  0  0  0
 31 32  2  0  0  0  0
 31 50  1  0  0  0  0
M  END
$$$$
ZINC08969721
 OpenBabel01252620473D

 54 56  0  0  1  0  0  0  0  0999 V2000
  -16.2878    3.4791  -12.5788 C   0  0  0  0  0  0  0  0  0  0  0  0
  -16.2283    4.2850  -11.2796 C   0  0  0  0  0  0  0  0  0  0  0  0
  -15.4834    3.4969  -10.2332 C   0  0  0  0  0  0  0  0  0  0  0  0
  -16.1709    2.6325   -9.4011 C   0  0  0  0  0  0  0  0  0  0  0  0
  -15.4910    1.9088   -8.4412 C   0  0  0  0  0  0  0  0  0  0  0  0
  -14.1155    2.0496   -8.3123 C   0  0  0  0  0  0  0  0  0  0  0  0
  -13.4279    2.9181   -9.1498 C   0  0  0  0  0  0  0  0  0  0  0  0
  -14.1129    3.6354  -10.1110 C   0  0  0  0  0  0  0  0  0  0  0  0
  -13.4238    1.3181   -7.3405 N   0  0  0  0  0  0  0  0  0  0  0  0
  -13.7761    0.0439   -7.0785 C   0  0  0  0  0  0  0  0  0  0  0  0
  -14.6171   -0.5049   -7.7588 O   0  0  0  0  0  0  0  0  0  0  0  0
  -13.1252   -0.6991   -5.9404 C   0  0  0  0  0  0  0  0  0  0  0  0
  -13.8067   -2.3775   -5.8457 S   0  0  0  0  0  0  0  0  0  0  0  0
  -12.9564   -3.1067   -4.4855 C   0  0  0  0  0  0  0  0  0  0  0  0
  -13.2312   -4.4094   -4.1289 C   0  0  0  0  0  0  0  0  0  0  0  0
  -12.5244   -5.0202   -2.9434 C   0  0  2  0  0  0  0  0  0  0  0  0
  -13.0757   -4.7901   -2.0317 H   0  0  0  0  0  0  0  0  0  0  0  0
  -11.1129   -4.4353   -2.8500 C   0  0  2  0  0  0  0  0  0  0  0  0
  -10.6829   -4.6783   -1.8783 H   0  0  0  0  0  0  0  0  0  0  0  0
  -11.1747   -2.9394   -3.0112 C   0  0  0  0  0  0  0  0  0  0  0  0
  -10.3163   -2.1656   -2.3224 O   0  5  0  0  0  0  0  0  0  0  0  0
  -12.0366   -2.3837   -3.8059 N   0  0  0  0  0  0  0  0  0  0  0  0
  -10.2534   -5.0221   -3.9399 C   0  0  0  0  0  0  0  0  0  0  0  0
  -10.4538   -4.7241   -5.0936 O   0  0  0  0  0  0  0  0  0  0  0  0
   -9.2652   -5.8757   -3.6291 O   0  0  0  0  0  0  0  0  0  0  0  0
   -8.4902   -6.3931   -4.7125 C   0  0  0  0  0  0  0  0  0  0  0  0
  -12.4427   -6.5146   -3.1199 C   0  0  0  0  0  0  0  0  0  0  0  0
  -12.2992   -7.0545   -4.3844 C   0  0  0  0  0  0  0  0  0  0  0  0
  -12.2242   -8.4251   -4.5464 C   0  0  0  0  0  0  0  0  0  0  0  0
  -12.2928   -9.2569   -3.4442 C   0  0  0  0  0  0  0  0  0  0  0  0
  -12.4363   -8.7184   -2.1796 C   0  0  0  0  0  0  0  0  0  0  0  0
  -12.5057   -7.3461   -2.0162 C   0  0  0  0  0  0  0  0  0  0  0  0
  -12.6794   -6.6684   -0.4274 Cl  0  0  0  0  0  0  0  0  0  0  0  0
  -14.1806   -5.1773   -4.8770 C   0  0  0  0  0  0  0  0  0  0  0  0
  -14.9336   -5.7864   -5.4705 N   0  0  0  0  0  0  0  0  0  0  0  0
  -16.8266    4.0491  -13.3356 H   0  0  0  0  0  0  0  0  0  0  0  0
  -15.2751    3.2778  -12.9281 H   0  0  0  0  0  0  0  0  0  0  0  0
  -16.8040    2.5362  -12.3982 H   0  0  0  0  0  0  0  0  0  0  0  0
  -15.7122    5.2279  -11.4602 H   0  0  0  0  0  0  0  0  0  0  0  0
  -17.2410    4.4863  -10.9303 H   0  0  0  0  0  0  0  0  0  0  0  0
  -17.2406    2.5235   -9.5018 H   0  0  0  0  0  0  0  0  0  0  0  0
  -16.0287    1.2344   -7.7911 H   0  0  0  0  0  0  0  0  0  0  0  0
  -12.3582    3.0301   -9.0519 H   0  0  0  0  0  0  0  0  0  0  0  0
  -13.5782    4.3079  -10.7653 H   0  0  0  0  0  0  0  0  0  0  0  0
  -12.6908    1.7282   -6.8553 H   0  0  0  0  0  0  0  0  0  0  0  0
  -12.0497   -0.7527   -6.1095 H   0  0  0  0  0  0  0  0  0  0  0  0
  -13.3202   -0.1744   -5.0052 H   0  0  0  0  0  0  0  0  0  0  0  0
   -7.7281   -7.0685   -4.3239 H   0  0  0  0  0  0  0  0  0  0  0  0
   -9.1411   -6.9357   -5.3982 H   0  0  0  0  0  0  0  0  0  0  0  0
   -8.0105   -5.5699   -5.2418 H   0  0  0  0  0  0  0  0  0  0  0  0
  -12.2459   -6.4053   -5.2458 H   0  0  0  0  0  0  0  0  0  0  0  0
  -12.1124   -8.8465   -5.5345 H   0  0  0  0  0  0  0  0  0  0  0  0
  -12.2345  -10.3278   -3.5715 H   0  0  0  0  0  0  0  0  0  0  0  0
  -12.4902   -9.3682   -1.3187 H   0  0  0  0  0  0  0  0  0  0  0  0
  1  2  1  0  0  0  0
  1 36  1  0  0  0  0
  1 37  1  0  0  0  0
  1 38  1  0  0  0  0
  2  3  1  0  0  0  0
  2 39  1  0  0  0  0
  2 40  1  0  0  0  0
  3  8  2  0  0  0  0
  3  4  1  0  0  0  0
  4  5  2  0  0  0  0
  4 41  1  0  0  0  0
  5  6  1  0  0  0  0
  5 42  1  0  0  0  0
  6  7  2  0  0  0  0
  6  9  1  0  0  0  0
  7  8  1  0  0  0  0
  7 43  1  0  0  0  0
  8 44  1  0  0  0  0
  9 10  1  0  0  0  0
  9 45  1  0  0  0  0
 10 11  2  0  0  0  0
 10 12  1  0  0  0  0
 12 13  1  0  0  0  0
 12 46  1  0  0  0  0
 12 47  1  0  0  0  0
 13 14  1  0  0  0  0
 14 22  1  0  0  0  0
 14 15  2  0  0  0  0
 15 16  1  0  0  0  0
 15 34  1  0  0  0  0
 16 17  1  1  0  0  0
 16 18  1  0  0  0  0
 16 27  1  0  0  0  0
 18 19  1  1  0  0  0
 18 20  1  0  0  0  0
 18 23  1  0  0  0  0
 20 21  1  0  0  0  0
 20 22  2  0  0  0  0
 23 24  2  0  0  0  0
 23 25  1  0  0  0  0
 25 26  1  0  0  0  0
 26 48  1  0  0  0  0
 26 49  1  0  0  0  0
 26 50  1  0  0  0  0
 27 32  2  0  0  0  0
 27 28  1  0  0  0  0
 28 29  2  0  0  0  0
 28 51  1  0  0  0  0
 29 30  1  0  0  0  0
 29 52  1  0  0  0  0
 30 31  2  0  0  0  0
 30 53  1  0  0  0  0
 31 32  1  0  0  0  0
 31 54  1  0  0  0  0
 32 33  1  0  0  0  0
 34 35  3  0  0  0  0
M  CHG  1  21  -1
M  END
$$$$
ZINC15050127
 OpenBabel01252620473D

 41 42  0  0  0  0  0  0  0  0999 V2000
    0.6700    1.4715   -0.0079 C   0  0  0  0  0  0  0  0  0  0  0  0
    0.4877   -0.0476    0.0025 C   0  0  0  0  0  0  0  0  0  0  0  0
    0.6924   -0.5429    1.3272 O   0  0  0  0  0  0  0  0  0  0  0  0
    0.5663   -1.8844    1.5111 C   0  0  0  0  0  0  0  0  0  0  0  0
    0.2591   -2.7018    0.4414 C   0  0  0  0  0  0  0  0  0  0  0  0
    0.1301   -4.0827    0.6347 C   0  0  0  0  0  0  0  0  0  0  0  0
    0.3135   -4.6265    1.9119 C   0  0  0  0  0  0  0  0  0  0  0  0
    0.6197   -3.8030    2.9729 C   0  0  0  0  0  0  0  0  0  0  0  0
    0.7529   -2.4346    2.7787 C   0  0  0  0  0  0  0  0  0  0  0  0
    1.0610   -1.6286    3.8280 O   0  0  0  0  0  0  0  0  0  0  0  0
   -0.1969   -4.9576   -0.4983 C   0  0  0  0  0  0  0  0  0  0  0  0
    0.0019   -6.2967   -0.4011 C   0  0  0  0  0  0  0  0  0  0  0  0
   -0.3785   -7.3749   -1.3352 C   0  0  0  0  0  0  0  0  0  0  0  0
   -0.9610   -7.1413   -2.3780 O   0  0  0  0  0  0  0  0  0  0  0  0
   -0.0541   -8.6072   -0.9817 N   0  0  0  0  0  0  0  0  0  0  0  0
    0.5917   -8.8615    0.1745 C   0  0  0  0  0  0  0  0  0  0  0  0
    0.9480   -9.9357    0.6203 O   0  0  0  0  0  0  0  0  0  0  0  0
    0.8034   -7.2390    0.8893 S   0  0  0  0  0  0  0  0  0  0  0  0
   -0.4046   -9.7213   -1.8660 C   0  0  0  0  0  0  0  0  0  0  0  0
    0.7223   -9.9663   -2.8362 C   0  0  0  0  0  0  0  0  0  0  0  0
    1.7200   -9.2780   -2.7931 O   0  0  0  0  0  0  0  0  0  0  0  0
    0.6215  -10.9503   -3.7516 N   0  0  0  0  0  0  0  0  0  0  0  0
    1.7170  -11.1885   -4.6947 C   0  0  0  0  0  0  0  0  0  0  0  0
    1.3564  -12.3346   -5.6043 C   0  0  0  0  0  0  0  0  0  0  0  0
    0.2838  -12.9001   -5.4767 O   0  0  0  0  0  0  0  0  0  0  0  0
    2.1374  -12.6964   -6.4679 O   0  0  0  0  0  1  0  0  0  0  0  0
    1.6796    1.7185    0.3204 H   0  0  0  0  0  0  0  0  0  0  0  0
    0.5138    1.8492   -1.0183 H   0  0  0  0  0  0  0  0  0  0  0  0
   -0.0536    1.9289    0.6669 H   0  0  0  0  0  0  0  0  0  0  0  0
   -0.5220   -0.2946   -0.3258 H   0  0  0  0  0  0  0  0  0  0  0  0
    1.2112   -0.5050   -0.6723 H   0  0  0  0  0  0  0  0  0  0  0  0
    0.1183   -2.2772   -0.5416 H   0  0  0  0  0  0  0  0  0  0  0  0
    0.2145   -5.6909    2.0652 H   0  0  0  0  0  0  0  0  0  0  0  0
    0.7606   -4.2234    3.9577 H   0  0  0  0  0  0  0  0  0  0  0  0
    0.2900   -1.2905    4.3039 H   0  0  0  0  0  0  0  0  0  0  0  0
   -0.5956   -4.5356   -1.4090 H   0  0  0  0  0  0  0  0  0  0  0  0
   -0.5730  -10.6187   -1.2706 H   0  0  0  0  0  0  0  0  0  0  0  0
   -1.3120   -9.4758   -2.4177 H   0  0  0  0  0  0  0  0  0  0  0  0
   -0.1764  -11.5008   -3.7860 H   0  0  0  0  0  0  0  0  0  0  0  0
    1.8854  -10.2912   -5.2901 H   0  0  0  0  0  0  0  0  0  0  0  0
    2.6244  -11.4341   -4.1430 H   0  0  0  0  0  0  0  0  0  0  0  0
  1  2  1  0  0  0  0
  1 27  1  0  0  0  0
  1 28  1  0  0  0  0
  1 29  1  0  0  0  0
  2  3  1  0  0  0  0
  2 30  1  0  0  0  0
  2 31  1  0  0  0  0
  3  4  1  0  0  0  0
  4  9  2  0  0  0  0
  4  5  1  0  0  0  0
  5  6  2  0  0  0  0
  5 32  1  0  0  0  0
  6  7  1  0  0  0  0
  6 11  1  0  0  0  0
  7  8  2  0  0  0  0
  7 33  1  0  0  0  0
  8  9  1  0  0  0  0
  8 34  1  0  0  0  0
  9 10  1  0  0  0  0
 10 35  1  0  0  0  0
 11 12  2  0  0  0  0
 11 36  1  0  0  0  0
 12 18  1  0  0  0  0
 12 13  1  0  0  0  0
 13 14  2  0  0  0  0
 13 15  1  0  0  0  0
 15 16  1  0  0  0  0
 15 19  1  0  0  0  0
 16 17  2  0  0  0  0
 16 18  1  0  0  0  0
 19 20  1  0  0  0  0
 19 37  1  0  0  0  0
 19 38  1  0  0  0  0
 20 21  2  0  0  0  0
 20 22  1  0  0  0  0
 22 23  1  0  0  0  0
 22 39  1  0  0  0  0
 23 24  1  0  0  0  0
 23 40  1  0  0  0  0
 23 41  1  0  0  0  0
 24 25  2  0  0  0  0
 24 26  1  0  0  0  0
M  END
$$$$
ZINC50223005
 OpenBabel01252620473D

 29 30  0  0  0  0  0  0  0  0999 V2000
    0.0028    1.3306   -0.0048 C   0  0  0  0  0  0  0  0  0  0  0  0
    1.1871    2.0441   -0.0125 C   0  0  0  0  0  0  0  0  0  0  0  0
    2.3971    1.3762   -0.0171 C   0  0  0  0  0  0  0  0  0  0  0  0
    2.4238   -0.0070   -0.0136 C   0  0  0  0  0  0  0  0  0  0  0  0
    1.2379   -0.7213   -0.0054 C   0  0  0  0  0  0  0  0  0  0  0  0
    0.0276   -0.0512   -0.0013 C   0  0  0  0  0  0  0  0  0  0  0  0
    1.2696   -2.4570   -0.0015 Cl  0  0  0  0  0  0  0  0  0  0  0  0
    3.9433   -0.8464   -0.0200 Cl  0  0  0  0  0  0  0  0  0  0  0  0
    3.6874    2.1547   -0.0265 C   0  0  0  0  0  0  0  0  0  0  0  0
    4.2613    2.2080    1.3908 C   0  0  0  0  0  0  0  0  0  0  0  0
    5.5516    2.9865    1.3813 C   0  0  0  0  0  0  0  0  0  0  0  0
    5.9719    3.4538    0.3409 O   0  0  0  0  0  0  0  0  0  0  0  0
    6.2308    3.1622    2.5119 N   0  0  0  0  0  0  0  0  0  0  0  0
    7.4203    3.7574    2.4876 C   0  0  0  0  0  0  0  0  0  0  0  0
    7.9748    4.3194    1.3710 N   0  0  0  0  0  0  0  0  0  0  0  0
    9.2792    4.8540    1.8030 C   0  0  0  0  0  0  0  0  0  0  0  0
    9.3339    4.5021    3.2757 C   0  0  0  0  0  0  0  0  0  0  0  0
   10.3322    4.7769    4.1302 O   0  5  0  0  0  0  0  0  0  0  0  0
    8.2171    3.8845    3.5523 N   0  0  0  0  0  0  0  0  0  0  0  0
   -0.9422    1.8535    0.0030 H   0  0  0  0  0  0  0  0  0  0  0  0
    1.1667    3.1239   -0.0153 H   0  0  0  0  0  0  0  0  0  0  0  0
   -0.8979   -0.6079    0.0051 H   0  0  0  0  0  0  0  0  0  0  0  0
    4.4016    1.6664   -0.6896 H   0  0  0  0  0  0  0  0  0  0  0  0
    3.4977    3.1682   -0.3800 H   0  0  0  0  0  0  0  0  0  0  0  0
    3.5471    2.6963    2.0538 H   0  0  0  0  0  0  0  0  0  0  0  0
    4.4510    1.1945    1.7443 H   0  0  0  0  0  0  0  0  0  0  0  0
    7.5905    4.3581    0.4812 H   0  0  0  0  0  0  0  0  0  0  0  0
   10.0914    4.3687    1.2618 H   0  0  0  0  0  0  0  0  0  0  0  0
    9.3161    5.9346    1.6648 H   0  0  0  0  0  0  0  0  0  0  0  0
  1  6  2  0  0  0  0
  1  2  1  0  0  0  0
  1 20  1  0  0  0  0
  2  3  2  0  0  0  0
  2 21  1  0  0  0  0
  3  4  1  0  0  0  0
  3  9  1  0  0  0  0
  4  5  2  0  0  0  0
  4  8  1  0  0  0  0
  5  6  1  0  0  0  0
  5  7  1  0  0  0  0
  6 22  1  0  0  0  0
  9 23  1  0  0  0  0
  9 24  1  0  0  0  0
  9 10  1  0  0  0  0
 10 11  1  0  0  0  0
 10 25  1  0  0  0  0
 10 26  1  0  0  0  0
 11 13  1  0  0  0  0
 11 12  2  0  0  0  0
 13 14  2  0  0  0  0
 14 15  1  0  0  0  0
 14 19  1  0  0  0  0
 15 16  1  0  0  0  0
 15 27  1  0  0  0  0
 16 17  1  0  0  0  0
 16 28  1  0  0  0  0
 16 29  1  0  0  0  0
 17 18  1  0  0  0  0
 17 19  2  0  0  0  0
M  CHG  1  18  -1
M  END
$$$$
ZINC15200225
 OpenBabel01252620473D

 33 35  0  0  1  0  0  0  0  0999 V2000
   -0.0184    1.5028    0.0103 C   0  0  0  0  0  0  0  0  0  0  0  0
    0.0021   -0.0041    0.0020 C   0  0  0  0  0  0  0  0  0  0  0  0
    0.0056   -0.6814   -1.2047 C   0  0  0  0  0  0  0  0  0  0  0  0
    0.0257   -2.0670   -1.2207 C   0  0  0  0  0  0  0  0  0  0  0  0
    0.0427   -2.7759   -0.0089 C   0  0  0  0  0  0  0  0  0  0  0  0
    0.0374   -2.0847    1.2127 C   0  0  0  0  0  0  0  0  0  0  0  0
    0.0228   -0.6933    1.1992 C   0  0  0  0  0  0  0  0  0  0  0  0
    0.0245    0.1828    2.6979 Cl  0  0  0  0  0  0  0  0  0  0  0  0
    0.0527   -2.9465    2.2590 O   0  0  0  0  0  0  0  0  0  0  0  0
    0.0745   -4.2922    1.7924 C   0  0  2  0  0  0  0  0  0  0  0  0
    0.0671   -4.2151    0.2836 C   0  0  0  0  0  0  0  0  0  0  0  0
    0.0784   -5.1347   -0.5080 O   0  0  0  0  0  0  0  0  0  0  0  0
   -1.2121   -4.9534    2.2168 C   0  0  0  0  0  0  0  0  0  0  0  0
   -1.1447   -6.0797    2.9527 C   0  0  0  0  0  0  0  0  0  0  0  0
    0.1640   -6.6459    3.3315 C   0  0  0  0  0  0  0  0  0  0  0  0
    0.1976   -7.6662    3.9951 O   0  0  0  0  0  0  0  0  0  0  0  0
    1.3766   -6.0389    2.9462 C   0  0  0  0  0  0  0  0  0  0  0  0
    1.3861   -4.9076    2.2070 C   0  0  0  0  0  0  0  0  0  0  0  0
    2.5518   -4.3380    1.8458 O   0  0  0  0  0  0  0  0  0  0  0  0
    3.7509   -4.9835    2.2790 C   0  0  0  0  0  0  0  0  0  0  0  0
   -2.5136   -4.3806    1.8358 C   0  0  0  0  0  0  0  0  0  0  0  0
   -3.5493   -4.9281    2.1874 O   0  0  0  0  0  0  0  0  0  0  0  0
   -2.5593   -3.3571    1.1677 O   0  0  0  0  0  1  0  0  0  0  0  0
    0.0284   -2.7351   -2.4014 O   0  5  0  0  0  0  0  0  0  0  0  0
   -0.0156    0.2041   -2.6977 Cl  0  0  0  0  0  0  0  0  0  0  0  0
    1.0042    1.8801    0.0026 H   0  0  0  0  0  0  0  0  0  0  0  0
   -0.5455    1.8639   -0.8728 H   0  0  0  0  0  0  0  0  0  0  0  0
   -0.5286    1.8543    0.9071 H   0  0  0  0  0  0  0  0  0  0  0  0
   -2.0536   -6.5707    3.2675 H   0  0  0  0  0  0  0  0  0  0  0  0
    2.3131   -6.4851    3.2466 H   0  0  0  0  0  0  0  0  0  0  0  0
    4.6147   -4.4233    1.9211 H   0  0  0  0  0  0  0  0  0  0  0  0
    3.7693   -5.0229    3.3681 H   0  0  0  0  0  0  0  0  0  0  0  0
    3.7833   -5.9966    1.8781 H   0  0  0  0  0  0  0  0  0  0  0  0
  1  2  1  0  0  0  0
  1 26  1  0  0  0  0
  1 27  1  0  0  0  0
  1 28  1  0  0  0  0
  2  7  2  0  0  0  0
  2  3  1  0  0  0  0
  3  4  2  0  0  0  0
  3 25  1  0  0  0  0
  4  5  1  0  0  0  0
  4 24  1  0  0  0  0
  5 11  1  0  0  0  0
  5  6  2  0  0  0  0
  6  7  1  0  0  0  0
  6  9  1  0  0  0  0
  7  8  1  0  0  0  0
 10  9  1  1  0  0  0
 10 18  1  0  0  0  0
 10 11  1  0  0  0  0
 10 13  1  0  0  0  0
 11 12  2  0  0  0  0
 13 14  2  0  0  0  0
 13 21  1  0  0  0  0
 14 15  1  0  0  0  0
 14 29  1  0  0  0  0
 15 16  2  0  0  0  0
 15 17  1  0  0  0  0
 17 18  2  0  0  0  0
 17 30  1  0  0  0  0
 18 19  1  0  0  0  0
 19 20  1  0  0  0  0
 20 31  1  0  0  0  0
 20 32  1  0  0  0  0
 20 33  1  0  0  0  0
 21 22  2  0  0  0  0
 21 23  1  0  0  0  0
M  CHG  1  24  -1
M  END
$$$$
ZINC57411736
 OpenBabel01252620473D

 36 37  0  0  0  0  0  0  0  0999 V2000
   -0.0173    1.4248    0.0099 C   0  0  0  0  0  0  0  0  0  0  0  0
    0.0021   -0.0041    0.0020 O   0  0  0  0  0  0  0  0  0  0  0  0
    0.6005   -0.6019   -1.0465 C   0  0  0  0  0  0  0  0  0  0  0  0
    1.0925    0.0714   -1.9299 O   0  0  0  0  0  0  0  0  0  0  0  0
    0.6585   -2.0754   -1.1219 C   0  0  0  0  0  0  0  0  0  0  0  0
    0.0890   -2.8527   -0.1108 C   0  0  0  0  0  0  0  0  0  0  0  0
    0.1467   -4.2283   -0.1875 C   0  0  0  0  0  0  0  0  0  0  0  0
    0.7673   -4.8399   -1.2631 C   0  0  0  0  0  0  0  0  0  0  0  0
    1.3341   -4.0775   -2.2681 C   0  0  0  0  0  0  0  0  0  0  0  0
    1.2784   -2.6989   -2.2078 C   0  0  0  0  0  0  0  0  0  0  0  0
    2.0464   -1.6577   -3.5870 Br  0  0  0  0  0  0  0  0  0  0  0  0
   -0.5708   -5.2102    1.0875 S   0  0  0  0  0  0  0  0  0  0  0  0
    0.0941   -6.4657    1.0561 O   0  0  0  0  0  0  0  0  0  0  0  0
   -0.6097   -4.3977    2.2526 O   0  0  0  0  0  0  0  0  0  0  0  0
   -2.1441   -5.4971    0.6578 N   0  0  0  0  0  2  0  0  0  0  0  0
   -2.9639   -6.2554    1.4862 C   0  0  0  0  0  0  0  0  0  0  0  0
   -2.4621   -6.7681    2.6793 C   0  0  0  0  0  0  0  0  0  0  0  0
   -3.2709   -7.5189    3.5014 C   0  0  0  0  0  0  0  0  0  0  0  0
   -4.5976   -7.7668    3.1372 C   0  0  0  0  0  0  0  0  0  0  0  0
   -5.0985   -7.2506    1.9385 C   0  0  0  0  0  0  0  0  0  0  0  0
   -4.2864   -6.4957    1.1235 C   0  0  0  0  0  0  0  0  0  0  0  0
   -5.4672   -8.5718    4.0159 C   0  0  0  0  0  0  0  0  0  0  0  0
   -5.0302   -9.0204    5.0581 O   0  0  0  0  0  0  0  0  0  0  0  0
   -6.7461   -8.8098    3.6635 N   0  0  0  0  0  0  0  0  0  0  0  0
    1.0053    1.8021    0.0021 H   0  0  0  0  0  0  0  0  0  0  0  0
   -0.5445    1.7859   -0.8732 H   0  0  0  0  0  0  0  0  0  0  0  0
   -0.5275    1.7763    0.9067 H   0  0  0  0  0  0  0  0  0  0  0  0
   -0.3953   -2.3774    0.7294 H   0  0  0  0  0  0  0  0  0  0  0  0
    0.8094   -5.9177   -1.3176 H   0  0  0  0  0  0  0  0  0  0  0  0
    1.8173   -4.5612   -3.1041 H   0  0  0  0  0  0  0  0  0  0  0  0
   -1.4369   -6.5766    2.9599 H   0  0  0  0  0  0  0  0  0  0  0  0
   -2.8810   -7.9167    4.4267 H   0  0  0  0  0  0  0  0  0  0  0  0
   -6.1230   -7.4407    1.6543 H   0  0  0  0  0  0  0  0  0  0  0  0
   -4.6741   -6.0927    0.1996 H   0  0  0  0  0  0  0  0  0  0  0  0
   -7.0948   -8.4519    2.8321 H   0  0  0  0  0  0  0  0  0  0  0  0
   -7.3179   -9.3391    4.2413 H   0  0  0  0  0  0  0  0  0  0  0  0
  1  2  1  0  0  0  0
  1 25  1  0  0  0  0
  1 26  1  0  0  0  0
  1 27  1  0  0  0  0
  2  3  1  0  0  0  0
  3  4  2  0  0  0  0
  3  5  1  0  0  0  0
  5 10  2  0  0  0  0
  5  6  1  0  0  0  0
  6  7  2  0  0  0  0
  6 28  1  0  0  0  0
  7  8  1  0  0  0  0
  7 12  1  0  0  0  0
  8  9  2  0  0  0  0
  8 29  1  0  0  0  0
  9 10  1  0  0  0  0
  9 30  1  0  0  0  0
 10 11  1  0  0  0  0
 12 13  2  0  0  0  0
 12 14  2  0  0  0  0
 12 15  1  0  0  0  0
 15 16  1  0  0  0  0
 16 21  2  0  0  0  0
 16 17  1  0  0  0  0
 17 18  2  0  0  0  0
 17 31  1  0  0  0  0
 18 19  1  0  0  0  0
 18 32  1  0  0  0  0
 19 20  2  0  0  0  0
 19 22  1  0  0  0  0
 20 21  1  0  0  0  0
 20 33  1  0  0  0  0
 21 34  1  0  0  0  0
 22 23  2  0  0  0  0
 22 24  1  0  0  0  0
 24 35  1  0  0  0  0
 24 36  1  0  0  0  0
M  END
$$$$
ZINC49051382
 OpenBabel01252620473D

 33 34  0  0  1  0  0  0  0  0999 V2000
   -0.0187    1.5258    0.0104 C   0  0  0  0  0  0  0  0  0  0  0  0
    0.0021   -0.0041    0.0020 C   0  0  2  0  0  0  0  0  0  0  0  0
    0.5293   -0.3651    0.8851 H   0  0  0  0  0  0  0  0  0  0  0  0
    0.7074   -0.4901   -1.2379 C   0  0  0  0  0  0  0  0  0  0  0  0
    1.5300   -1.3866   -1.1594 O   0  0  0  0  0  0  0  0  0  0  0  0
    0.4555    0.0132   -2.3194 O   0  0  0  0  0  1  0  0  0  0  0  0
   -1.6997   -0.6320    0.0149 S   0  0  0  0  0  0  0  0  0  0  0  0
   -2.4193   -0.1184   -1.0977 O   0  0  0  0  0  0  0  0  0  0  0  0
   -1.7058   -2.0237    0.3017 O   0  0  0  0  0  0  0  0  0  0  0  0
   -2.4042    0.0749    1.3365 N   0  0  0  0  0  0  0  0  0  0  0  0
   -3.0824    1.3665    1.2020 C   0  0  0  0  0  0  0  0  0  0  0  0
   -2.3491   -0.5914    2.6400 C   0  0  0  0  0  0  0  0  0  0  0  0
   -1.1798   -0.0587    3.4275 C   0  0  0  0  0  0  0  0  0  0  0  0
   -0.9556   -0.5603    4.6704 N   0  0  0  0  0  0  0  0  0  0  0  0
   -1.5384   -1.2448    5.0348 H   0  0  0  0  0  0  0  0  0  0  0  0
    0.0902   -0.0954    5.3955 C   0  0  0  0  0  0  0  0  0  0  0  0
    0.3184   -0.5254    6.5137 O   0  0  0  0  0  0  0  0  0  0  0  0
    0.8990    0.8888    4.8266 C   0  0  0  0  0  0  0  0  0  0  0  0
    0.6450    1.3910    3.5382 C   0  0  0  0  0  0  0  0  0  0  0  0
   -0.4353    0.8505    2.8847 N   0  0  0  0  0  0  0  0  0  0  0  0
    1.5345    2.3761    3.0885 C   0  0  0  0  0  0  0  0  0  0  0  0
    2.5530    2.7830    3.8766 C   0  0  0  0  0  0  0  0  0  0  0  0
    2.3348    1.7910    5.3448 S   0  0  0  0  0  0  0  0  0  0  0  0
    1.0039    1.9031    0.0027 H   0  0  0  0  0  0  0  0  0  0  0  0
   -0.5459    1.8868   -0.8726 H   0  0  0  0  0  0  0  0  0  0  0  0
   -0.5289    1.8773    0.9072 H   0  0  0  0  0  0  0  0  0  0  0  0
   -4.1319    1.2021    0.9581 H   0  0  0  0  0  0  0  0  0  0  0  0
   -3.0091    1.9148    2.1412 H   0  0  0  0  0  0  0  0  0  0  0  0
   -2.6106    1.9435    0.4067 H   0  0  0  0  0  0  0  0  0  0  0  0
   -3.2727   -0.3987    3.1858 H   0  0  0  0  0  0  0  0  0  0  0  0
   -2.2303   -1.6651    2.4945 H   0  0  0  0  0  0  0  0  0  0  0  0
    1.4053    2.8111    2.1084 H   0  0  0  0  0  0  0  0  0  0  0  0
    3.3109    3.5242    3.6700 H   0  0  0  0  0  0  0  0  0  0  0  0
  1  2  1  0  0  0  0
  1 24  1  0  0  0  0
  1 25  1  0  0  0  0
  1 26  1  0  0  0  0
  2  3  1  1  0  0  0
  2  4  1  0  0  0  0
  2  7  1  0  0  0  0
  4  5  2  0  0  0  0
  4  6  1  0  0  0  0
  7  8  2  0  0  0  0
  7  9  2  0  0  0  0
  7 10  1  0  0  0  0
 10 11  1  0  0  0  0
 10 12  1  0  0  0  0
 11 27  1  0  0  0  0
 11 28  1  0  0  0  0
 11 29  1  0  0  0  0
 12 13  1  0  0  0  0
 12 30  1  0  0  0  0
 12 31  1  0  0  0  0
 13 20  2  0  0  0  0
 13 14  1  0  0  0  0
 14 15  1  0  0  0  0
 14 16  1  0  0  0  0
 16 17  2  0  0  0  0
 16 18  1  0  0  0  0
 18 23  1  0  0  0  0
 18 19  2  0  0  0  0
 19 20  1  0  0  0  0
 19 21  1  0  0  0  0
 21 22  2  0  0  0  0
 21 32  1  0  0  0  0
 22 23  1  0  0  0  0
 22 33  1  0  0  0  0
M  END
$$$$
ZINC01244467
 OpenBabel01252620473D

 57 60  0  0  1  0  0  0  0  0999 V2000
   -0.0091    1.5059   -0.0014 C   0  0  0  0  0  0  0  0  0  0  0  0
    0.0021   -0.0240   -0.0044 C   0  0  0  0  0  0  0  0  0  0  0  0
    0.6926   -0.4976    1.1536 O   0  0  0  0  0  0  0  0  0  0  0  0
    0.7933   -1.8445    1.3041 C   0  0  0  0  0  0  0  0  0  0  0  0
    0.2438   -2.6930    0.3537 C   0  0  0  0  0  0  0  0  0  0  0  0
    0.3478   -4.0615    0.5088 C   0  0  0  0  0  0  0  0  0  0  0  0
    0.9990   -4.5862    1.6101 C   0  0  0  0  0  0  0  0  0  0  0  0
    1.5470   -3.7430    2.5587 C   0  0  0  0  0  0  0  0  0  0  0  0
    1.4505   -2.3733    2.4053 C   0  0  0  0  0  0  0  0  0  0  0  0
    2.0535   -1.4546    3.4365 C   0  0  1  0  0  0  0  0  0  0  0  0
    1.8616   -0.4269    3.1280 H   0  0  0  0  0  0  0  0  0  0  0  0
    1.3443   -1.6936    4.7575 C   0  0  0  0  0  0  0  0  0  0  0  0
    2.1234   -2.0819    5.8340 C   0  0  0  0  0  0  0  0  0  0  0  0
    3.4441   -2.2453    5.7366 N   0  0  0  0  0  0  0  0  0  0  0  0
    4.1564   -2.0678    4.6519 C   0  0  0  0  0  0  0  0  0  0  0  0
    3.5544   -1.6738    3.4469 C   0  0  0  0  0  0  0  0  0  0  0  0
    4.2672   -1.4875    2.3242 C   0  0  0  0  0  0  0  0  0  0  0  0
    5.7577   -1.6976    2.2996 C   0  0  0  0  0  0  0  0  0  0  0  0
    6.3331   -1.3986    3.6870 C   0  0  0  0  0  0  0  0  0  0  0  0
    5.6488   -2.2957    4.7056 C   0  0  0  0  0  0  0  0  0  0  0  0
    3.6353   -1.1051    1.1965 O   0  5  0  0  0  0  0  0  0  0  0  0
    1.3436   -2.3699    7.3876 S   0  0  0  0  0  0  0  0  0  0  0  0
    2.7091   -2.8467    8.4824 C   0  0  0  0  0  0  0  0  0  0  0  0
    2.1725   -3.1249    9.8629 C   0  0  0  0  0  0  0  0  0  0  0  0
    0.9857   -3.0126   10.0862 O   0  0  0  0  0  0  0  0  0  0  0  0
    3.0115   -3.4985   10.8493 N   0  0  0  0  0  0  0  0  0  0  0  0
    2.5297   -3.6630   12.1527 C   0  0  0  0  0  0  0  0  0  0  0  0
    3.3280   -3.3237   13.2376 C   0  0  0  0  0  0  0  0  0  0  0  0
    2.8501   -3.4865   14.5229 C   0  0  0  0  0  0  0  0  0  0  0  0
    1.5781   -3.9872   14.7313 C   0  0  0  0  0  0  0  0  0  0  0  0
    0.7798   -4.3262   13.6530 C   0  0  0  0  0  0  0  0  0  0  0  0
    1.2508   -4.1601   12.3638 C   0  0  0  0  0  0  0  0  0  0  0  0
   -0.8163   -4.9549   13.9191 Cl  0  0  0  0  0  0  0  0  0  0  0  0
   -0.0720   -1.5241    4.8847 C   0  0  0  0  0  0  0  0  0  0  0  0
   -1.1954   -1.3896    4.9856 N   0  0  0  0  0  0  0  0  0  0  0  0
    1.0158    1.8768   -0.0125 H   0  0  0  0  0  0  0  0  0  0  0  0
   -0.5358    1.8671   -0.8847 H   0  0  0  0  0  0  0  0  0  0  0  0
   -0.5153    1.8638    0.8951 H   0  0  0  0  0  0  0  0  0  0  0  0
   -1.0228   -0.3949    0.0067 H   0  0  0  0  0  0  0  0  0  0  0  0
    0.5083   -0.3819   -0.9010 H   0  0  0  0  0  0  0  0  0  0  0  0
   -0.2652   -2.2836   -0.5064 H   0  0  0  0  0  0  0  0  0  0  0  0
   -0.0800   -4.7223   -0.2306 H   0  0  0  0  0  0  0  0  0  0  0  0
    1.0793   -5.6566    1.7296 H   0  0  0  0  0  0  0  0  0  0  0  0
    2.0547   -4.1552    3.4182 H   0  0  0  0  0  0  0  0  0  0  0  0
    5.9752   -2.7312    2.0305 H   0  0  0  0  0  0  0  0  0  0  0  0
    6.2077   -1.0277    1.5669 H   0  0  0  0  0  0  0  0  0  0  0  0
    7.4052   -1.5958    3.6880 H   0  0  0  0  0  0  0  0  0  0  0  0
    6.1520   -0.3539    3.9401 H   0  0  0  0  0  0  0  0  0  0  0  0
    6.0177   -2.0591    5.7036 H   0  0  0  0  0  0  0  0  0  0  0  0
    5.8665   -3.3383    4.4736 H   0  0  0  0  0  0  0  0  0  0  0  0
    3.1913   -3.7431    8.0925 H   0  0  0  0  0  0  0  0  0  0  0  0
    3.4355   -2.0355    8.5316 H   0  0  0  0  0  0  0  0  0  0  0  0
    3.9493   -3.6534   10.6557 H   0  0  0  0  0  0  0  0  0  0  0  0
    4.3219   -2.9333   13.0760 H   0  0  0  0  0  0  0  0  0  0  0  0
    3.4708   -3.2228   15.3665 H   0  0  0  0  0  0  0  0  0  0  0  0
    1.2070   -4.1141   15.7376 H   0  0  0  0  0  0  0  0  0  0  0  0
    0.6261   -4.4205   11.5222 H   0  0  0  0  0  0  0  0  0  0  0  0
  1  2  1  0  0  0  0
  1 36  1  0  0  0  0
  1 37  1  0  0  0  0
  1 38  1  0  0  0  0
  2  3  1  0  0  0  0
  2 39  1  0  0  0  0
  2 40  1  0  0  0  0
  3  4  1  0  0  0  0
  4  9  2  0  0  0  0
  4  5  1  0  0  0  0
  5  6  2  0  0  0  0
  5 41  1  0  0  0  0
  6  7  1  0  0  0  0
  6 42  1  0  0  0  0
  7  8  2  0  0  0  0
  7 43  1  0  0  0  0
  8  9  1  0  0  0  0
  8 44  1  0  0  0  0
  9 10  1  0  0  0  0
 10 11  1  6  0  0  0
 10 16  1  0  0  0  0
 10 12  1  0  0  0  0
 12 13  2  0  0  0  0
 12 34  1  0  0  0  0
 13 14  1  0  0  0  0
 13 22  1  0  0  0  0
 14 15  2  0  0  0  0
 15 20  1  0  0  0  0
 15 16  1  0  0  0  0
 16 17  2  0  0  0  0
 17 18  1  0  0  0  0
 17 21  1  0  0  0  0
 18 19  1  0  0  0  0
 18 45  1  0  0  0  0
 18 46  1  0  0  0  0
 19 20  1  0  0  0  0
 19 47  1  0  0  0  0
 19 48  1  0  0  0  0
 20 49  1  0  0  0  0
 20 50  1  0  0  0  0
 22 23  1  0  0  0  0
 23 24  1  0  0  0  0
 23 51  1  0  0  0  0
 23 52  1  0  0  0  0
 24 25  2  0  0  0  0
 24 26  1  0  0  0  0
 26 27  1  0  0  0  0
 26 53  1  0  0  0  0
 27 32  2  0  0  0  0
 27 28  1  0  0  0  0
 28 29  2  0  0  0  0
 28 54  1  0  0  0  0
 29 30  1  0  0  0  0
 29 55  1  0  0  0  0
 30 31  2  0  0  0  0
 30 56  1  0  0  0  0
 31 32  1  0  0  0  0
 31 33  1  0  0  0  0
 32 57  1  0  0  0  0
 34 35  3  0  0  0  0
M  CHG  1  21  -1
M  END
$$$$
ZINC09189446
 OpenBabel01252620473D

 29 30  0  0  1  0  0  0  0  0999 V2000
    1.5848    3.2045   -0.0638 C   0  0  0  0  0  0  0  0  0  0  0  0
    2.8713    3.6885   -0.1714 C   0  0  0  0  0  0  0  0  0  0  0  0
    3.9325    2.8137   -0.3342 C   0  0  0  0  0  0  0  0  0  0  0  0
    3.7111    1.4476   -0.3858 C   0  0  0  0  0  0  0  0  0  0  0  0
    2.4307    0.9486   -0.2747 C   0  0  0  0  0  0  0  0  0  0  0  0
    1.3541    1.8259   -0.1096 C   0  0  0  0  0  0  0  0  0  0  0  0
   -0.0156    1.3012    0.0092 C   0  0  0  0  0  0  0  0  0  0  0  0
   -0.2440    0.0276   -0.1637 N   0  0  0  0  0  0  0  0  0  0  0  0
    0.7203   -0.7609   -0.4991 N   0  0  0  0  0  0  0  0  0  0  0  0
    0.4899   -2.0459   -0.6735 C   0  0  0  0  0  0  0  0  0  0  0  0
   -0.7031   -2.7227   -0.5377 N   0  0  0  0  0  0  0  0  0  0  0  0
   -0.8062   -4.0242   -0.7461 C   0  0  0  0  0  0  0  0  0  0  0  0
   -1.8593   -4.6140   -0.6297 O   0  0  0  0  0  0  0  0  0  0  0  0
    0.4795   -4.7359   -1.1349 C   0  0  2  0  0  0  0  0  0  0  0  0
    0.7591   -5.4812   -0.3903 H   0  0  0  0  0  0  0  0  0  0  0  0
    1.6518   -3.3222   -1.1340 S   0  0  0  0  0  0  0  0  0  0  0  0
    0.3683   -5.3628   -2.5262 C   0  0  0  0  0  0  0  0  0  0  0  0
    1.6822   -6.0014   -2.8960 C   0  0  0  0  0  0  0  0  0  0  0  0
    2.6123   -5.9593   -2.1258 O   0  0  0  0  0  0  0  0  0  0  0  0
    5.6926    3.4880   -0.4875 Br  0  0  0  0  0  0  0  0  0  0  0  0
    0.7578    3.8880    0.0590 H   0  0  0  0  0  0  0  0  0  0  0  0
    3.0515    4.7526   -0.1324 H   0  0  0  0  0  0  0  0  0  0  0  0
    4.5435    0.7714   -0.5137 H   0  0  0  0  0  0  0  0  0  0  0  0
    2.2595   -0.1169   -0.3154 H   0  0  0  0  0  0  0  0  0  0  0  0
   -0.8326    1.9705    0.2350 H   0  0  0  0  0  0  0  0  0  0  0  0
   -1.4963   -2.2257   -0.2830 H   0  0  0  0  0  0  0  0  0  0  0  0
   -0.4154   -6.1205   -2.5217 H   0  0  0  0  0  0  0  0  0  0  0  0
    0.1222   -4.5899   -3.2543 H   0  0  0  0  0  0  0  0  0  0  0  0
    1.8194   -6.6168   -4.0810 O   0  0  0  0  0  1  0  0  0  0  0  0
  1  6  2  0  0  0  0
  1  2  1  0  0  0  0
  1 21  1  0  0  0  0
  2  3  2  0  0  0  0
  2 22  1  0  0  0  0
  3  4  1  0  0  0  0
  3 20  1  0  0  0  0
  4  5  2  0  0  0  0
  4 23  1  0  0  0  0
  5  6  1  0  0  0  0
  5 24  1  0  0  0  0
  6  7  1  0  0  0  0
  7  8  2  0  0  0  0
  7 25  1  0  0  0  0
  8  9  1  0  0  0  0
  9 10  2  0  0  0  0
 10 16  1  0  0  0  0
 10 11  1  0  0  0  0
 11 12  1  0  0  0  0
 11 26  1  0  0  0  0
 12 13  2  0  0  0  0
 12 14  1  0  0  0  0
 14 15  1  1  0  0  0
 14 16  1  0  0  0  0
 14 17  1  0  0  0  0
 17 18  1  0  0  0  0
 17 27  1  0  0  0  0
 17 28  1  0  0  0  0
 18 19  2  0  0  0  0
 18 29  1  0  0  0  0
M  END
$$$$
ZINC44930154
 OpenBabel01252620473D

 27 28  0  0  1  0  0  0  0  0999 V2000
   -0.4317    1.5953    0.7697 C   0  0  0  0  0  0  0  0  0  0  0  0
   -0.0158    0.2036    0.2887 C   0  0  2  0  0  0  0  0  0  0  0  0
    0.6110    0.2980   -0.5980 H   0  0  0  0  0  0  0  0  0  0  0  0
   -1.2455   -0.5996   -0.0484 C   0  0  0  0  0  0  0  0  0  0  0  0
   -1.6923   -0.8887   -1.2619 N   0  0  0  0  0  2  0  0  0  0  0  0
   -2.7649   -1.5910   -1.1253 N   0  0  0  0  0  0  0  0  0  0  0  0
   -3.0043   -1.7511    0.1297 N   0  0  0  0  0  0  0  0  0  0  0  0
   -2.0849   -1.1577    0.8117 N   0  0  0  0  0  0  0  0  0  0  0  0
    0.7355   -0.4748    1.3478 N   0  0  0  0  0  0  0  0  0  0  0  0
    2.2883   -0.9782    1.0692 S   0  0  0  0  0  0  0  0  0  0  0  0
    2.7544   -1.5489    2.2842 O   0  0  0  0  0  0  0  0  0  0  0  0
    2.2675   -1.7017   -0.1536 O   0  0  0  0  0  0  0  0  0  0  0  0
    3.2603    0.4637    0.7846 C   0  0  0  0  0  0  0  0  0  0  0  0
    3.8542    0.6648   -0.4475 C   0  0  0  0  0  0  0  0  0  0  0  0
    4.6163    1.7957   -0.6714 C   0  0  0  0  0  0  0  0  0  0  0  0
    4.7851    2.7273    0.3375 C   0  0  0  0  0  0  0  0  0  0  0  0
    4.1912    2.5266    1.5701 C   0  0  0  0  0  0  0  0  0  0  0  0
    3.4242    1.3970    1.7921 C   0  0  0  0  0  0  0  0  0  0  0  0
    2.6054    1.1256    3.4749 Br  0  0  0  0  0  0  0  0  0  0  0  0
    5.8284    4.2744    0.0312 Br  0  0  0  0  0  0  0  0  0  0  0  0
    0.4578    2.1763    1.0135 H   0  0  0  0  0  0  0  0  0  0  0  0
   -0.9906    2.1000   -0.0183 H   0  0  0  0  0  0  0  0  0  0  0  0
   -1.0584    1.5009    1.6565 H   0  0  0  0  0  0  0  0  0  0  0  0
    0.3233   -0.6291    2.2122 H   0  0  0  0  0  0  0  0  0  0  0  0
    3.7229   -0.0624   -1.2351 H   0  0  0  0  0  0  0  0  0  0  0  0
    5.0803    1.9522   -1.6339 H   0  0  0  0  0  0  0  0  0  0  0  0
    4.3229    3.2535    2.3579 H   0  0  0  0  0  0  0  0  0  0  0  0
  1  2  1  0  0  0  0
  1 21  1  0  0  0  0
  1 22  1  0  0  0  0
  1 23  1  0  0  0  0
  2  3  1  6  0  0  0
  2  4  1  0  0  0  0
  2  9  1  0  0  0  0
  4  5  1  0  0  0  0
  4  8  2  0  0  0  0
  5  6  1  0  0  0  0
  6  7  2  0  0  0  0
  7  8  1  0  0  0  0
  9 10  1  0  0  0  0
  9 24  1  0  0  0  0
 10 11  2  0  0  0  0
 10 12  2  0  0  0  0
 10 13  1  0  0  0  0
 13 18  2  0  0  0  0
 13 14  1  0  0  0  0
 14 15  2  0  0  0  0
 14 25  1  0  0  0  0
 15 16  1  0  0  0  0
 15 26  1  0  0  0  0
 16 17  2  0  0  0  0
 16 20  1  0  0  0  0
 17 18  1  0  0  0  0
 17 27  1  0  0  0  0
 18 19  1  0  0  0  0
M  END
$$$$
ZINC66505775
 OpenBabel01252620473D

 42 44  0  0  1  0  0  0  0  0999 V2000
    0.0388    1.8213    0.7257 C   0  0  0  0  0  0  0  0  0  0  0  0
    1.1336    2.6749    0.7037 C   0  0  0  0  0  0  0  0  0  0  0  0
    2.3972    2.1882    1.0110 C   0  0  0  0  0  0  0  0  0  0  0  0
    2.5629    0.8543    1.3384 C   0  0  0  0  0  0  0  0  0  0  0  0
    1.4697    0.0047    1.3598 C   0  0  0  0  0  0  0  0  0  0  0  0
    0.2087    0.4881    1.0537 C   0  0  0  0  0  0  0  0  0  0  0  0
   -0.8563   -0.3429    1.0753 F   0  0  0  0  0  0  0  0  0  0  0  0
    3.7922    0.3802    1.6371 F   0  0  0  0  0  0  0  0  0  0  0  0
    0.9640    4.0235    0.3719 N   0  0  0  0  0  0  0  0  0  0  0  0
    2.0296    5.0309    0.4297 C   0  0  0  0  0  0  0  0  0  0  0  0
    1.5193    6.2197   -0.4146 C   0  0  2  0  0  0  0  0  0  0  0  0
    1.8274    7.1694    0.0226 H   0  0  0  0  0  0  0  0  0  0  0  0
   -0.0134    6.0384   -0.3202 C   0  0  0  0  0  0  0  0  0  0  0  0
   -0.1946    4.5617   -0.0464 C   0  0  0  0  0  0  0  0  0  0  0  0
   -1.2346    3.9525   -0.1820 O   0  0  0  0  0  0  0  0  0  0  0  0
    1.9894    6.1084   -1.8421 C   0  0  0  0  0  0  0  0  0  0  0  0
    1.3589    5.2830   -2.6948 O   0  5  0  0  0  0  0  0  0  0  0  0
    3.0543    6.8451   -2.2684 C   0  0  0  0  0  0  0  0  0  0  0  0
    3.3757    6.8985   -3.6628 C   0  0  0  0  0  0  0  0  0  0  0  0
    3.6307    6.9408   -4.7690 N   0  0  0  0  0  0  0  0  0  0  0  0
    3.8726    7.5848   -1.2965 C   0  0  0  0  0  0  0  0  0  0  0  0
    3.6816    7.4383   -0.1040 O   0  0  0  0  0  0  0  0  0  0  0  0
    4.8345    8.4252   -1.7267 N   0  0  0  0  0  0  0  0  0  0  0  0
    5.1661    8.7003   -3.1324 C   0  0  0  0  0  0  0  0  0  0  0  0
    6.3424    9.6992   -3.1386 C   0  0  0  0  0  0  0  0  0  0  0  0
    6.9781    9.4961   -1.7379 C   0  0  0  0  0  0  0  0  0  0  0  0
    5.7240    9.2257   -0.8657 C   0  0  0  0  0  0  0  0  0  0  0  0
   -0.9456    2.1989    0.4914 H   0  0  0  0  0  0  0  0  0  0  0  0
    3.2502    2.8505    0.9941 H   0  0  0  0  0  0  0  0  0  0  0  0
    1.6007   -1.0363    1.6156 H   0  0  0  0  0  0  0  0  0  0  0  0
    2.1968    5.3445    1.4602 H   0  0  0  0  0  0  0  0  0  0  0  0
    2.9495    4.6320    0.0022 H   0  0  0  0  0  0  0  0  0  0  0  0
   -0.4184    6.6345    0.4976 H   0  0  0  0  0  0  0  0  0  0  0  0
   -0.4884    6.3099   -1.2630 H   0  0  0  0  0  0  0  0  0  0  0  0
    5.4610    7.7771   -3.6312 H   0  0  0  0  0  0  0  0  0  0  0  0
    4.3052    9.1383   -3.6374 H   0  0  0  0  0  0  0  0  0  0  0  0
    7.0550    9.4509   -3.9252 H   0  0  0  0  0  0  0  0  0  0  0  0
    5.9802   10.7208   -3.2533 H   0  0  0  0  0  0  0  0  0  0  0  0
    7.6521    8.6395   -1.7352 H   0  0  0  0  0  0  0  0  0  0  0  0
    7.4939   10.3981   -1.4084 H   0  0  0  0  0  0  0  0  0  0  0  0
    5.2417   10.1634   -0.5896 H   0  0  0  0  0  0  0  0  0  0  0  0
    5.9972    8.6616    0.0261 H   0  0  0  0  0  0  0  0  0  0  0  0
  1  6  2  0  0  0  0
  1  2  1  0  0  0  0
  1 28  1  0  0  0  0
  2  3  2  0  0  0  0
  2  9  1  0  0  0  0
  3  4  1  0  0  0  0
  3 29  1  0  0  0  0
  4  5  2  0  0  0  0
  4  8  1  0  0  0  0
  5  6  1  0  0  0  0
  5 30  1  0  0  0  0
  6  7  1  0  0  0  0
  9 14  1  0  0  0  0
  9 10  1  0  0  0  0
 10 11  1  0  0  0  0
 10 31  1  0  0  0  0
 10 32  1  0  0  0  0
 11 12  1  1  0  0  0
 11 13  1  0  0  0  0
 11 16  1  0  0  0  0
 13 14  1  0  0  0  0
 13 33  1  0  0  0  0
 13 34  1  0  0  0  0
 14 15  2  0  0  0  0
 16 17  1  0  0  0  0
 16 18  2  0  0  0  0
 18 19  1  0  0  0  0
 18 21  1  0  0  0  0
 19 20  3  0  0  0  0
 21 22  2  0  0  0  0
 21 23  1  0  0  0  0
 23 27  1  0  0  0  0
 23 24  1  0  0  0  0
 24 25  1  0  0  0  0
 24 35  1  0  0  0  0
 24 36  1  0  0  0  0
 25 26  1  0  0  0  0
 25 37  1  0  0  0  0
 25 38  1  0  0  0  0
 26 27  1  0  0  0  0
 26 39  1  0  0  0  0
 26 40  1  0  0  0  0
 27 41  1  0  0  0  0
 27 42  1  0  0  0  0
M  CHG  1  17  -1
M  END
$$$$
ZINC63911575
 OpenBabel01252620473D

 33 34  0  0  0  0  0  0  0  0999 V2000
   -0.0184    1.5028    0.0103 C   0  0  0  0  0  0  0  0  0  0  0  0
    0.0021   -0.0041    0.0020 C   0  0  0  0  0  0  0  0  0  0  0  0
    0.0057   -0.6874   -1.2004 C   0  0  0  0  0  0  0  0  0  0  0  0
    0.0244   -2.0681   -1.2116 C   0  0  0  0  0  0  0  0  0  0  0  0
    0.0396   -2.7708   -0.0132 C   0  0  0  0  0  0  0  0  0  0  0  0
    0.0359   -2.0814    1.1925 C   0  0  0  0  0  0  0  0  0  0  0  0
    0.0229   -0.7002    1.1965 C   0  0  0  0  0  0  0  0  0  0  0  0
    0.0254    0.1755    2.7254 S   0  0  0  0  0  0  0  0  0  0  0  0
   -1.0142    1.1407    2.6424 O   0  0  0  0  0  0  0  0  0  0  0  0
    0.0756   -0.8035    3.7541 O   0  0  0  0  0  0  0  0  0  0  0  0
    1.4486    1.0185    2.8045 N   0  0  0  0  0  0  0  0  0  0  0  0
    0.0581   -4.1674   -0.0209 N   0  0  0  0  0  2  0  0  0  0  0  0
    0.0619   -4.9875   -1.4596 S   0  0  0  0  0  0  0  0  0  0  0  0
   -1.1901   -4.7266   -2.0791 O   0  0  0  0  0  0  0  0  0  0  0  0
    1.3004   -4.6936   -2.0913 O   0  0  0  0  0  0  0  0  0  0  0  0
    0.0866   -6.7076   -1.0786 C   0  0  0  0  0  0  0  0  0  0  0  0
   -0.9543   -7.5561   -0.8943 C   0  0  0  0  0  0  0  0  0  0  0  0
   -0.6947   -8.8815   -0.5999 C   0  0  0  0  0  0  0  0  0  0  0  0
    0.5930   -9.2936   -0.5042 C   0  0  0  0  0  0  0  0  0  0  0  0
    1.4890   -7.7869   -0.8429 S   0  0  0  0  0  0  0  0  0  0  0  0
    1.1199  -10.6438   -0.2028 N   0  0  0  0  0  4  0  0  0  0  0  0
    0.3565  -11.5595   -0.0019 O   0  0  0  0  0  0  0  0  0  0  0  0
    2.3135  -10.8307   -0.1574 O   0  5  0  0  0  0  0  0  0  0  0  0
    1.0042    1.8801    0.0026 H   0  0  0  0  0  0  0  0  0  0  0  0
   -0.5455    1.8639   -0.8728 H   0  0  0  0  0  0  0  0  0  0  0  0
   -0.5286    1.8543    0.9071 H   0  0  0  0  0  0  0  0  0  0  0  0
   -0.0065   -0.1406   -2.1317 H   0  0  0  0  0  0  0  0  0  0  0  0
    0.0269   -2.6011   -2.1509 H   0  0  0  0  0  0  0  0  0  0  0  0
    0.0473   -2.6246    2.1259 H   0  0  0  0  0  0  0  0  0  0  0  0
    2.0876    0.9607    2.0770 H   0  0  0  0  0  0  0  0  0  0  0  0
    1.6433    1.5701    3.5783 H   0  0  0  0  0  0  0  0  0  0  0  0
   -1.9713   -7.2018   -0.9758 H   0  0  0  0  0  0  0  0  0  0  0  0
   -1.5058   -9.5782   -0.4480 H   0  0  0  0  0  0  0  0  0  0  0  0
  1  2  1  0  0  0  0
  1 24  1  0  0  0  0
  1 25  1  0  0  0  0
  1 26  1  0  0  0  0
  2  7  2  0  0  0  0
  2  3  1  0  0  0  0
  3  4  2  0  0  0  0
  3 27  1  0  0  0  0
  4  5  1  0  0  0  0
  4 28  1  0  0  0  0
  5  6  2  0  0  0  0
  5 12  1  0  0  0  0
  6  7  1  0  0  0  0
  6 29  1  0  0  0  0
  7  8  1  0  0  0  0
  8  9  2  0  0  0  0
  8 10  2  0  0  0  0
  8 11  1  0  0  0  0
 11 30  1  0  0  0  0
 11 31  1  0  0  0  0
 12 13  1  0  0  0  0
 13 14  2  0  0  0  0
 13 15  2  0  0  0  0
 13 16  1  0  0  0  0
 16 20  1  0  0  0  0
 16 17  2  0  0  0  0
 17 18  1  0  0  0  0
 17 32  1  0  0  0  0
 18 19  2  0  0  0  0
 18 33  1  0  0  0  0
 19 20  1  0  0  0  0
 19 21  1  0  0  0  0
 21 22  2  0  0  0  0
 21 23  1  0  0  0  0
M  CHG  1  23  -1
M  END
$$$$
ZINC13351722
 OpenBabel01252620473D

 49 51  0  0  0  0  0  0  0  0999 V2000
   -0.0167    1.3792    0.0096 C   0  0  0  0  0  0  0  0  0  0  0  0
    1.1668    2.0883    0.0021 C   0  0  0  0  0  0  0  0  0  0  0  0
    2.3849    1.4069   -0.0132 C   0  0  0  0  0  0  0  0  0  0  0  0
    2.3967    0.0107   -0.0208 C   0  0  0  0  0  0  0  0  0  0  0  0
    1.2062   -0.6859   -0.0132 C   0  0  0  0  0  0  0  0  0  0  0  0
    0.0021   -0.0041    0.0020 C   0  0  0  0  0  0  0  0  0  0  0  0
    1.2187   -2.4478   -0.0234 S   0  0  0  0  0  0  0  0  0  0  0  0
   -0.0291   -2.8596   -0.5644 O   0  0  0  0  0  0  0  0  0  0  0  0
    2.4614   -2.8419   -0.5886 O   0  0  0  0  0  0  0  0  0  0  0  0
    1.2376   -2.9465    1.5556 N   0  0  0  0  0  2  0  0  0  0  0  0
    1.2502   -4.3109    1.8574 C   0  0  0  0  0  0  0  0  0  0  0  0
    1.2528   -5.2498    0.8339 C   0  0  0  0  0  0  0  0  0  0  0  0
    1.2658   -6.5976    1.1350 C   0  0  0  0  0  0  0  0  0  0  0  0
    1.2758   -7.0129    2.4550 C   0  0  0  0  0  0  0  0  0  0  0  0
    1.2732   -6.0796    3.4767 C   0  0  0  0  0  0  0  0  0  0  0  0
    1.2661   -4.7305    3.1814 C   0  0  0  0  0  0  0  0  0  0  0  0
    1.2909   -8.7079    2.8298 Cl  0  0  0  0  0  0  0  0  0  0  0  0
    3.6566    2.1599   -0.0218 C   0  0  0  0  0  0  0  0  0  0  0  0
    4.7162    1.5635   -0.0351 O   0  0  0  0  0  0  0  0  0  0  0  0
    3.6418    3.5075   -0.0148 N   0  0  0  0  0  0  0  0  0  0  0  0
    4.8473    4.2213   -0.0230 N   0  0  0  0  0  0  0  0  0  0  0  0
    4.8331    5.5194   -0.0163 C   0  0  0  0  0  0  0  0  0  0  0  0
    6.1015    6.2704   -0.0248 C   0  0  0  0  0  0  0  0  0  0  0  0
    7.3204    5.5872   -0.0460 C   0  0  0  0  0  0  0  0  0  0  0  0
    8.5036    6.2935   -0.0544 C   0  0  0  0  0  0  0  0  0  0  0  0
    8.4860    7.6823   -0.0419 C   0  0  0  0  0  0  0  0  0  0  0  0
    7.2769    8.3656   -0.0208 C   0  0  0  0  0  0  0  0  0  0  0  0
    6.0886    7.6678   -0.0176 C   0  0  0  0  0  0  0  0  0  0  0  0
    9.6549    8.3745   -0.0498 O   0  0  0  0  0  0  0  0  0  0  0  0
    9.5645    9.8005   -0.0361 C   0  0  0  0  0  0  0  0  0  0  0  0
   10.9506   10.3918   -0.0475 C   0  0  0  0  0  0  0  0  0  0  0  0
   11.9255    9.6599   -0.0657 O   0  0  0  0  0  0  0  0  0  0  0  0
   11.0972   11.6022   -0.0385 O   0  0  0  0  0  1  0  0  0  0  0  0
   -0.9598    1.9052    0.0260 H   0  0  0  0  0  0  0  0  0  0  0  0
    1.1508    3.1682    0.0077 H   0  0  0  0  0  0  0  0  0  0  0  0
    3.3357   -0.5226   -0.0330 H   0  0  0  0  0  0  0  0  0  0  0  0
   -0.9272   -0.5543    0.0083 H   0  0  0  0  0  0  0  0  0  0  0  0
    1.2442   -4.9262   -0.1965 H   0  0  0  0  0  0  0  0  0  0  0  0
    1.2678   -7.3281    0.3395 H   0  0  0  0  0  0  0  0  0  0  0  0
    1.2811   -6.4066    4.5060 H   0  0  0  0  0  0  0  0  0  0  0  0
    1.2686   -4.0025    3.9791 H   0  0  0  0  0  0  0  0  0  0  0  0
    2.7966    3.9832   -0.0042 H   0  0  0  0  0  0  0  0  0  0  0  0
    3.8920    6.0490   -0.0044 H   0  0  0  0  0  0  0  0  0  0  0  0
    7.3350    4.5074   -0.0554 H   0  0  0  0  0  0  0  0  0  0  0  0
    9.4461    5.7664   -0.0704 H   0  0  0  0  0  0  0  0  0  0  0  0
    7.2680    9.4456   -0.0108 H   0  0  0  0  0  0  0  0  0  0  0  0
    5.1489    8.2000   -0.0054 H   0  0  0  0  0  0  0  0  0  0  0  0
    9.0181   10.1385   -0.9166 H   0  0  0  0  0  0  0  0  0  0  0  0
    9.0395   10.1227    0.8632 H   0  0  0  0  0  0  0  0  0  0  0  0
  1  6  2  0  0  0  0
  1  2  1  0  0  0  0
  1 34  1  0  0  0  0
  2  3  2  0  0  0  0
  2 35  1  0  0  0  0
  3  4  1  0  0  0  0
  3 18  1  0  0  0  0
  4  5  2  0  0  0  0
  4 36  1  0  0  0  0
  5  6  1  0  0  0  0
  5  7  1  0  0  0  0
  6 37  1  0  0  0  0
  7  8  2  0  0  0  0
  7  9  2  0  0  0  0
  7 10  1  0  0  0  0
 10 11  1  0  0  0  0
 11 16  2  0  0  0  0
 11 12  1  0  0  0  0
 12 13  2  0  0  0  0
 12 38  1  0  0  0  0
 13 14  1  0  0  0  0
 13 39  1  0  0  0  0
 14 15  2  0  0  0  0
 14 17  1  0  0  0  0
 15 16  1  0  0  0  0
 15 40  1  0  0  0  0
 16 41  1  0  0  0  0
 18 19  2  0  0  0  0
 18 20  1  0  0  0  0
 20 21  1  0  0  0  0
 20 42  1  0  0  0  0
 21 22  2  0  0  0  0
 22 23  1  0  0  0  0
 22 43  1  0  0  0  0
 23 28  2  0  0  0  0
 23 24  1  0  0  0  0
 24 25  2  0  0  0  0
 24 44  1  0  0  0  0
 25 26  1  0  0  0  0
 25 45  1  0  0  0  0
 26 27  2  0  0  0  0
 26 29  1  0  0  0  0
 27 28  1  0  0  0  0
 27 46  1  0  0  0  0
 28 47  1  0  0  0  0
 29 30  1  0  0  0  0
 30 31  1  0  0  0  0
 30 48  1  0  0  0  0
 30 49  1  0  0  0  0
 31 32  2  0  0  0  0
 31 33  1  0  0  0  0
M  END
$$$$
ZINC43865376
 OpenBabel01252620473D

 37 39  0  0  0  0  0  0  0  0999 V2000
   -0.2713    1.3498   -0.9773 C   0  0  0  0  0  0  0  0  0  0  0  0
   -0.1634   -0.1054   -0.6004 C   0  0  0  0  0  0  0  0  0  0  0  0
   -0.5592   -1.0822   -1.4949 C   0  0  0  0  0  0  0  0  0  0  0  0
   -0.4603   -2.4169   -1.1492 C   0  0  0  0  0  0  0  0  0  0  0  0
    0.0349   -2.7749    0.0908 C   0  0  0  0  0  0  0  0  0  0  0  0
    0.4316   -1.7981    0.9849 C   0  0  0  0  0  0  0  0  0  0  0  0
    0.3367   -0.4635    0.6376 C   0  0  0  0  0  0  0  0  0  0  0  0
    0.1418   -4.2300    0.4680 C   0  0  0  0  0  0  0  0  0  0  0  0
    1.4544   -4.7430    0.0679 N   0  0  0  0  0  0  0  0  0  0  0  0
    1.7869   -6.0721    0.3143 C   0  0  0  0  0  0  0  0  0  0  0  0
    0.8947   -6.8930    0.9254 O   0  5  0  0  0  0  0  0  0  0  0  0
    2.9819   -6.5392   -0.0500 C   0  0  0  0  0  0  0  0  0  0  0  0
    3.7369   -5.8612   -0.4196 H   0  0  0  0  0  0  0  0  0  0  0  0
    3.2579   -7.9101    0.0468 N   0  0  0  0  0  0  0  0  0  0  0  0
    2.2177   -8.7924    0.0400 C   0  0  0  0  0  0  0  0  0  0  0  0
    2.4493  -10.1218    0.1323 C   0  0  0  0  0  0  0  0  0  0  0  0
    3.7629  -10.5839    0.2343 C   0  0  0  0  0  0  0  0  0  0  0  0
    4.8564   -9.6972    0.2434 C   0  0  0  0  0  0  0  0  0  0  0  0
    4.5361   -8.3079    0.1374 C   0  0  0  0  0  0  0  0  0  0  0  0
    5.4309   -7.4781    0.1338 O   0  0  0  0  0  0  0  0  0  0  0  0
    6.1563  -10.3347    0.3554 C   0  0  0  0  0  0  0  0  0  0  0  0
    6.2265  -11.6728    0.4394 C   0  0  0  0  0  0  0  0  0  0  0  0
    4.5188  -12.1815    0.3728 S   0  0  0  0  0  0  0  0  0  0  0  0
    0.6520    1.6693   -1.4606 H   0  0  0  0  0  0  0  0  0  0  0  0
   -1.1069    1.4863   -1.6637 H   0  0  0  0  0  0  0  0  0  0  0  0
   -0.4369    1.9461   -0.0800 H   0  0  0  0  0  0  0  0  0  0  0  0
   -0.9461   -0.8025   -2.4636 H   0  0  0  0  0  0  0  0  0  0  0  0
   -0.7702   -3.1801   -1.8478 H   0  0  0  0  0  0  0  0  0  0  0  0
    0.8182   -2.0778    1.9538 H   0  0  0  0  0  0  0  0  0  0  0  0
    0.6500    0.2995    1.3347 H   0  0  0  0  0  0  0  0  0  0  0  0
    0.0239   -4.3354    1.5465 H   0  0  0  0  0  0  0  0  0  0  0  0
   -0.6395   -4.7954   -0.0399 H   0  0  0  0  0  0  0  0  0  0  0  0
    2.0919   -4.1566   -0.3687 H   0  0  0  0  0  0  0  0  0  0  0  0
    1.2042   -8.4277   -0.0391 H   0  0  0  0  0  0  0  0  0  0  0  0
    1.6252  -10.8198    0.1276 H   0  0  0  0  0  0  0  0  0  0  0  0
    7.0569   -9.7388    0.3706 H   0  0  0  0  0  0  0  0  0  0  0  0
    7.1066  -12.2926    0.5262 H   0  0  0  0  0  0  0  0  0  0  0  0
  1  2  1  0  0  0  0
  1 24  1  0  0  0  0
  1 25  1  0  0  0  0
  1 26  1  0  0  0  0
  2  7  2  0  0  0  0
  2  3  1  0  0  0  0
  3  4  2  0  0  0  0
  3 27  1  0  0  0  0
  4  5  1  0  0  0  0
  4 28  1  0  0  0  0
  5  6  2  0  0  0  0
  5  8  1  0  0  0  0
  6  7  1  0  0  0  0
  6 29  1  0  0  0  0
  7 30  1  0  0  0  0
  8  9  1  0  0  0  0
  8 31  1  0  0  0  0
  8 32  1  0  0  0  0
  9 10  1  0  0  0  0
  9 33  1  0  0  0  0
 10 11  1  0  0  0  0
 10 12  2  0  0  0  0
 12 13  1  0  0  0  0
 12 14  1  0  0  0  0
 14 19  1  0  0  0  0
 14 15  1  0  0  0  0
 15 16  2  0  0  0  0
 15 34  1  0  0  0  0
 16 17  1  0  0  0  0
 16 35  1  0  0  0  0
 17 23  1  0  0  0  0
 17 18  2  0  0  0  0
 18 19  1  0  0  0  0
 18 21  1  0  0  0  0
 19 20  2  0  0  0  0
 21 22  2  0  0  0  0
 21 36  1  0  0  0  0
 22 23  1  0  0  0  0
 22 37  1  0  0  0  0
M  CHG  1  11  -1
M  END
$$$$
ZINC63142525
 OpenBabel01252620473D

 30 30  0  0  0  0  0  0  0  0999 V2000
   -0.0225    1.8097    0.0120 C   0  0  0  0  0  0  0  0  0  0  0  0
    0.0021   -0.0041    0.0020 S   0  0  0  0  0  0  0  0  0  0  0  0
    0.7981   -0.4488    1.0919 O   0  0  0  0  0  0  0  0  0  0  0  0
   -1.3351   -0.4711   -0.1129 O   0  0  0  0  0  0  0  0  0  0  0  0
    0.8774   -0.3845   -1.5406 C   0  0  0  0  0  0  0  0  0  0  0  0
    0.9858   -1.9018   -1.7046 C   0  0  0  0  0  0  0  0  0  0  0  0
    1.8611   -2.2822   -3.2473 S   0  0  0  0  0  0  0  0  0  0  0  0
    1.0705   -1.9020   -4.3651 O   0  0  0  0  0  0  0  0  0  0  0  0
    3.2204   -1.8795   -3.1508 O   0  0  0  0  0  0  0  0  0  0  0  0
    1.9138   -3.9362   -3.3099 N   0  0  0  0  0  2  0  0  0  0  0  0
    2.5312   -4.5765   -4.3912 C   0  0  0  0  0  0  0  0  0  0  0  0
    2.5698   -5.9578   -4.4456 C   0  0  0  0  0  0  0  0  0  0  0  0
    3.1875   -6.5942   -5.5274 C   0  0  0  0  0  0  0  0  0  0  0  0
    3.7628   -5.8274   -6.5484 C   0  0  0  0  0  0  0  0  0  0  0  0
    3.7180   -4.4478   -6.4831 C   0  0  0  0  0  0  0  0  0  0  0  0
    3.1011   -3.8213   -5.4142 C   0  0  0  0  0  0  0  0  0  0  0  0
    3.0558   -2.4721   -5.3599 F   0  0  0  0  0  0  0  0  0  0  0  0
    4.3613   -6.4358   -7.5957 F   0  0  0  0  0  0  0  0  0  0  0  0
    3.2330   -8.0641   -5.5922 C   0  0  0  0  0  0  0  0  0  0  0  0
    2.7301   -8.7317   -4.6988 O   0  0  0  0  0  0  0  0  0  0  0  0
    3.7739   -8.6182   -6.5394 O   0  0  0  0  0  1  0  0  0  0  0  0
    1.0001    2.1870    0.0043 H   0  0  0  0  0  0  0  0  0  0  0  0
   -0.5497    2.1708   -0.8711 H   0  0  0  0  0  0  0  0  0  0  0  0
   -0.5327    2.1613    0.9088 H   0  0  0  0  0  0  0  0  0  0  0  0
    0.3268    0.0336   -2.3834 H   0  0  0  0  0  0  0  0  0  0  0  0
    1.8766    0.0498   -1.5080 H   0  0  0  0  0  0  0  0  0  0  0  0
    1.5364   -2.3199   -0.8619 H   0  0  0  0  0  0  0  0  0  0  0  0
   -0.0134   -2.3361   -1.7372 H   0  0  0  0  0  0  0  0  0  0  0  0
    2.1247   -6.5436   -3.6550 H   0  0  0  0  0  0  0  0  0  0  0  0
    4.1621   -3.8568   -7.2705 H   0  0  0  0  0  0  0  0  0  0  0  0
  1  2  1  0  0  0  0
  1 22  1  0  0  0  0
  1 23  1  0  0  0  0
  1 24  1  0  0  0  0
  2  3  2  0  0  0  0
  2  4  2  0  0  0  0
  2  5  1  0  0  0  0
  5  6  1  0  0  0  0
  5 25  1  0  0  0  0
  5 26  1  0  0  0  0
  6  7  1  0  0  0  0
  6 27  1  0  0  0  0
  6 28  1  0  0  0  0
  7  8  2  0  0  0  0
  7  9  2  0  0  0  0
  7 10  1  0  0  0  0
 10 11  1  0  0  0  0
 11 16  2  0  0  0  0
 11 12  1  0  0  0  0
 12 13  2  0  0  0  0
 12 29  1  0  0  0  0
 13 14  1  0  0  0  0
 13 19  1  0  0  0  0
 14 15  2  0  0  0  0
 14 18  1  0  0  0  0
 15 16  1  0  0  0  0
 15 30  1  0  0  0  0
 16 17  1  0  0  0  0
 19 20  2  0  0  0  0
 19 21  1  0  0  0  0
M  END
$$$$
ZINC40053204
 OpenBabel01252620473D

 46 49  0  0  1  0  0  0  0  0999 V2000
   -0.0911   -1.5979   -4.0783 C   0  0  0  0  0  0  0  0  0  0  0  0
    1.0606   -1.1237   -4.6921 C   0  0  0  0  0  0  0  0  0  0  0  0
    2.2968   -1.3120   -4.1125 C   0  0  0  0  0  0  0  0  0  0  0  0
    2.3976   -1.9833   -2.8997 C   0  0  0  0  0  0  0  0  0  0  0  0
    1.2267   -2.4617   -2.2813 C   0  0  0  0  0  0  0  0  0  0  0  0
   -0.0173   -2.2607   -2.8860 C   0  0  0  0  0  0  0  0  0  0  0  0
    1.6661   -3.1078   -1.0462 C   0  0  0  0  0  0  0  0  0  0  0  0
    3.0204   -2.9754   -1.0132 C   0  0  0  0  0  0  0  0  0  0  0  0
    3.4392   -2.3113   -2.1104 O   0  0  0  0  0  0  0  0  0  0  0  0
    3.8936   -3.4793    0.0551 C   0  0  0  0  0  0  0  0  0  0  0  0
    3.4080   -3.9915    1.0478 O   0  0  0  0  0  0  0  0  0  0  0  0
    5.3505   -3.3656   -0.0735 C   0  0  0  0  0  0  0  0  0  0  0  0
    6.2322   -4.3852   -0.1927 C   0  0  0  0  0  0  0  0  0  0  0  0
    7.5991   -3.8355   -0.2966 C   0  0  0  0  0  0  0  0  0  0  0  0
    8.6103   -4.4990   -0.4145 O   0  0  0  0  0  0  0  0  0  0  0  0
    7.5596   -2.4918   -0.2419 N   0  0  0  0  0  0  0  0  0  0  0  0
    6.1554   -2.0873   -0.1050 C   0  0  2  0  0  0  0  0  0  0  0  0
    5.8544   -1.4757   -0.9556 H   0  0  0  0  0  0  0  0  0  0  0  0
    5.9627   -1.3218    1.1787 C   0  0  0  0  0  0  0  0  0  0  0  0
    6.5722   -1.7574    2.3431 C   0  0  0  0  0  0  0  0  0  0  0  0
    6.3944   -1.0532    3.5218 C   0  0  0  0  0  0  0  0  0  0  0  0
    5.6087    0.0840    3.5357 C   0  0  0  0  0  0  0  0  0  0  0  0
    5.0003    0.5188    2.3734 C   0  0  0  0  0  0  0  0  0  0  0  0
    5.1816   -0.1807    1.1931 C   0  0  0  0  0  0  0  0  0  0  0  0
    4.4228    0.3704   -0.2678 Cl  0  0  0  0  0  0  0  0  0  0  0  0
    7.3396   -2.8692    2.3292 F   0  0  0  0  0  0  0  0  0  0  0  0
    8.7132   -1.5917   -0.3126 C   0  0  0  0  0  0  0  0  0  0  0  0
    8.9839   -1.2232   -1.7727 C   0  0  0  0  0  0  0  0  0  0  0  0
   10.1888   -0.2831   -1.8465 C   0  0  0  0  0  0  0  0  0  0  0  0
   10.4416    0.0610   -3.2102 O   0  0  0  0  0  0  0  0  0  0  0  0
    5.9122   -5.7002   -0.2135 O   0  5  0  0  0  0  0  0  0  0  0  0
   -1.0521   -1.4379   -4.5444 H   0  0  0  0  0  0  0  0  0  0  0  0
    0.9868   -0.6015   -5.6346 H   0  0  0  0  0  0  0  0  0  0  0  0
    3.1855   -0.9391   -4.6000 H   0  0  0  0  0  0  0  0  0  0  0  0
   -0.9161   -2.6273   -2.4126 H   0  0  0  0  0  0  0  0  0  0  0  0
    1.0427   -3.5920   -0.3091 H   0  0  0  0  0  0  0  0  0  0  0  0
    6.8692   -1.3926    4.4304 H   0  0  0  0  0  0  0  0  0  0  0  0
    5.4699    0.6328    4.4554 H   0  0  0  0  0  0  0  0  0  0  0  0
    4.3864    1.4072    2.3854 H   0  0  0  0  0  0  0  0  0  0  0  0
    8.5034   -0.6867    0.2576 H   0  0  0  0  0  0  0  0  0  0  0  0
    9.5885   -2.0893    0.1049 H   0  0  0  0  0  0  0  0  0  0  0  0
    9.1938   -2.1282   -2.3428 H   0  0  0  0  0  0  0  0  0  0  0  0
    8.1086   -0.7255   -2.1901 H   0  0  0  0  0  0  0  0  0  0  0  0
    9.9789    0.6219   -1.2763 H   0  0  0  0  0  0  0  0  0  0  0  0
   11.0641   -0.7808   -1.4290 H   0  0  0  0  0  0  0  0  0  0  0  0
   11.1938    0.6562   -3.3326 H   0  0  0  0  0  0  0  0  0  0  0  0
  1  6  2  0  0  0  0
  1  2  1  0  0  0  0
  1 32  1  0  0  0  0
  2  3  2  0  0  0  0
  2 33  1  0  0  0  0
  3  4  1  0  0  0  0
  3 34  1  0  0  0  0
  4  9  1  0  0  0  0
  4  5  2  0  0  0  0
  5  6  1  0  0  0  0
  5  7  1  0  0  0  0
  6 35  1  0  0  0  0
  7  8  2  0  0  0  0
  7 36  1  0  0  0  0
  8  9  1  0  0  0  0
  8 10  1  0  0  0  0
 10 11  2  0  0  0  0
 10 12  1  0  0  0  0
 12 17  1  0  0  0  0
 12 13  2  0  0  0  0
 13 14  1  0  0  0  0
 13 31  1  0  0  0  0
 14 15  2  0  0  0  0
 14 16  1  0  0  0  0
 16 17  1  0  0  0  0
 16 27  1  0  0  0  0
 17 18  1  6  0  0  0
 17 19  1  0  0  0  0
 19 24  2  0  0  0  0
 19 20  1  0  0  0  0
 20 21  2  0  0  0  0
 20 26  1  0  0  0  0
 21 22  1  0  0  0  0
 21 37  1  0  0  0  0
 22 23  2  0  0  0  0
 22 38  1  0  0  0  0
 23 24  1  0  0  0  0
 23 39  1  0  0  0  0
 24 25  1  0  0  0  0
 27 28  1  0  0  0  0
 27 40  1  0  0  0  0
 27 41  1  0  0  0  0
 28 29  1  0  0  0  0
 28 42  1  0  0  0  0
 28 43  1  0  0  0  0
 29 30  1  0  0  0  0
 29 44  1  0  0  0  0
 29 45  1  0  0  0  0
 30 46  1  0  0  0  0
M  CHG  1  31  -1
M  END
$$$$
ZINC20527396
 OpenBabel01252620473D

 52 54  0  0  0  0  0  0  0  0999 V2000
   -2.2321    4.1612    5.1743 C   0  0  0  0  0  0  0  0  0  0  0  0
   -2.6493    2.9025    4.6418 O   0  0  0  0  0  0  0  0  0  0  0  0
   -2.0129    2.4640    3.5240 C   0  0  0  0  0  0  0  0  0  0  0  0
   -2.3676    1.2501    2.9535 C   0  0  0  0  0  0  0  0  0  0  0  0
   -1.7195    0.8068    1.8169 C   0  0  0  0  0  0  0  0  0  0  0  0
   -0.7181    1.5718    1.2479 C   0  0  0  0  0  0  0  0  0  0  0  0
   -0.3589    2.7793    1.8178 C   0  0  0  0  0  0  0  0  0  0  0  0
   -1.0078    3.2297    2.9511 C   0  0  0  0  0  0  0  0  0  0  0  0
   -0.0127    1.0858    0.0080 C   0  0  0  0  0  0  0  0  0  0  0  0
   -0.7213    1.5711   -1.1789 N   0  0  0  0  0  0  0  0  0  0  0  0
   -0.2681    1.2584   -2.4090 C   0  0  0  0  0  0  0  0  0  0  0  0
    0.7262    0.5752   -2.5335 O   0  0  0  0  0  0  0  0  0  0  0  0
   -0.9970    1.7576   -3.6299 C   0  0  0  0  0  0  0  0  0  0  0  0
   -0.1498    1.1739   -5.1191 S   0  0  0  0  0  0  0  0  0  0  0  0
   -1.1546    1.8627   -6.3220 C   0  0  0  0  0  0  0  0  0  0  0  0
   -2.2547    2.6115   -6.1099 N   0  0  0  0  0  0  0  0  0  0  0  0
   -2.7608    2.9649   -7.2381 N   0  0  0  0  0  0  0  0  0  0  0  0
   -2.0229    2.4569   -8.2421 C   0  0  0  0  0  0  0  0  0  0  0  0
   -0.9921    1.7494   -7.6740 N   0  0  0  0  0  0  0  0  0  0  0  0
   -0.0040    1.0699   -8.3282 N   0  0  0  0  0  0  0  0  0  0  0  0
   -2.2515    2.6115   -9.5507 N   0  0  0  0  0  0  0  0  0  0  0  0
   -3.2624    3.3055   -9.9513 N   0  0  0  0  0  0  0  0  0  0  0  0
   -3.4876    3.4579  -11.2406 C   0  0  0  0  0  0  0  0  0  0  0  0
   -4.5978    4.2202  -11.6806 C   0  0  0  0  0  0  0  0  0  0  0  0
   -4.8436    4.3865  -13.0546 C   0  0  0  0  0  0  0  0  0  0  0  0
   -5.9147    5.1219  -13.4710 C   0  0  0  0  0  0  0  0  0  0  0  0
   -6.7691    5.7104  -12.5471 C   0  0  0  0  0  0  0  0  0  0  0  0
   -6.5488    5.5610  -11.1917 C   0  0  0  0  0  0  0  0  0  0  0  0
   -5.4703    4.8145  -10.7424 C   0  0  0  0  0  0  0  0  0  0  0  0
   -5.2524    4.6603   -9.4138 O   0  5  0  0  0  0  0  0  0  0  0  0
   -6.1687    5.2938  -14.9190 N   0  0  0  0  0  4  0  0  0  0  0  0
   -5.3623    4.7379  -15.7995 O   0  0  0  0  0  0  0  0  0  0  0  0
   -7.2010    6.0026  -15.3269 O   0  5  0  0  0  0  0  0  0  0  0  0
   -2.8244    4.3942    6.0714 H   0  0  0  0  0  0  0  0  0  0  0  0
   -2.3845    4.9471    4.4199 H   0  0  0  0  0  0  0  0  0  0  0  0
   -1.1662    4.1111    5.4415 H   0  0  0  0  0  0  0  0  0  0  0  0
   -3.1495    0.6521    3.3978 H   0  0  0  0  0  0  0  0  0  0  0  0
   -1.9954   -0.1379    1.3722 H   0  0  0  0  0  0  0  0  0  0  0  0
    0.4269    3.3727    1.3742 H   0  0  0  0  0  0  0  0  0  0  0  0
   -0.7300    4.1750    3.3933 H   0  0  0  0  0  0  0  0  0  0  0  0
    1.0193    1.4666    0.0002 H   0  0  0  0  0  0  0  0  0  0  0  0
    0.0023   -0.0141    0.0019 H   0  0  0  0  0  0  0  0  0  0  0  0
   -1.6232    2.1907   -1.0660 H   0  0  0  0  0  0  0  0  0  0  0  0
   -2.0290    1.3768   -3.6221 H   0  0  0  0  0  0  0  0  0  0  0  0
   -1.0120    2.8575   -3.6239 H   0  0  0  0  0  0  0  0  0  0  0  0
    0.0173    1.0539   -9.4279 H   0  0  0  0  0  0  0  0  0  0  0  0
    0.7704    0.5387   -7.7553 H   0  0  0  0  0  0  0  0  0  0  0  0
   -1.5775    2.1469  -10.2854 H   0  0  0  0  0  0  0  0  0  0  0  0
   -2.8136    2.9933  -11.9753 H   0  0  0  0  0  0  0  0  0  0  0  0
   -4.1848    3.9328  -13.7802 H   0  0  0  0  0  0  0  0  0  0  0  0
   -7.6132    6.2895  -12.8915 H   0  0  0  0  0  0  0  0  0  0  0  0
   -7.2194    6.0220  -10.4817 H   0  0  0  0  0  0  0  0  0  0  0  0
  1  2  1  0  0  0  0
  1 34  1  0  0  0  0
  1 35  1  0  0  0  0
  1 36  1  0  0  0  0
  2  3  1  0  0  0  0
  3  8  2  0  0  0  0
  3  4  1  0  0  0  0
  4  5  2  0  0  0  0
  4 37  1  0  0  0  0
  5  6  1  0  0  0  0
  5 38  1  0  0  0  0
  6  7  2  0  0  0  0
  6  9  1  0  0  0  0
  7  8  1  0  0  0  0
  7 39  1  0  0  0  0
  8 40  1  0  0  0  0
  9 10  1  0  0  0  0
  9 41  1  0  0  0  0
  9 42  1  0  0  0  0
 10 11  1  0  0  0  0
 10 43  1  0  0  0  0
 11 12  2  0  0  0  0
 11 13  1  0  0  0  0
 13 14  1  0  0  0  0
 13 44  1  0  0  0  0
 13 45  1  0  0  0  0
 14 15  1  0  0  0  0
 15 19  1  0  0  0  0
 15 16  2  0  0  0  0
 16 17  1  0  0  0  0
 17 18  2  0  0  0  0
 18 19  1  0  0  0  0
 18 21  1  0  0  0  0
 19 20  1  0  0  0  0
 20 46  1  0  0  0  0
 20 47  1  0  0  0  0
 21 22  1  0  0  0  0
 21 48  1  0  0  0  0
 22 23  2  0  0  0  0
 23 24  1  0  0  0  0
 23 49  1  0  0  0  0
 24 29  2  0  0  0  0
 24 25  1  0  0  0  0
 25 26  2  0  0  0  0
 25 50  1  0  0  0  0
 26 27  1  0  0  0  0
 26 31  1  0  0  0  0
 27 28  2  0  0  0  0
 27 51  1  0  0  0  0
 28 29  1  0  0  0  0
 28 52  1  0  0  0  0
 29 30  1  0  0  0  0
 31 32  2  0  0  0  0
 31 33  1  0  0  0  0
M  CHG  2  30  -1  33  -1
M  END
$$$$
ZINC13255280
 OpenBabel01252620473D

 56 58  0  0  0  0  0  0  0  0999 V2000
    5.3244   -2.1693   -4.0554 C   0  0  0  0  0  0  0  0  0  0  0  0
    4.8522   -1.8292   -2.6652 C   0  0  0  0  0  0  0  0  0  0  0  0
    3.9615   -2.6607   -2.0148 C   0  0  0  0  0  0  0  0  0  0  0  0
    3.5322   -2.3523   -0.7372 C   0  0  0  0  0  0  0  0  0  0  0  0
    3.9847   -1.2055   -0.1102 C   0  0  0  0  0  0  0  0  0  0  0  0
    4.8752   -0.3700   -0.7548 C   0  0  0  0  0  0  0  0  0  0  0  0
    5.3126   -0.6796   -2.0365 C   0  0  0  0  0  0  0  0  0  0  0  0
    6.2139    0.1645   -2.6921 N   0  0  0  0  0  0  0  0  0  0  0  0
    6.1491    1.4972   -2.5024 C   0  0  0  0  0  0  0  0  0  0  0  0
    5.3604    1.9602   -1.6981 O   0  0  0  0  0  0  0  0  0  0  0  0
    6.9975    2.3586   -3.2378 C   0  0  0  0  0  0  0  0  0  0  0  0
    6.9322    3.7000   -3.0468 C   0  0  0  0  0  0  0  0  0  0  0  0
    7.7811    4.5619   -3.7827 C   0  0  0  0  0  0  0  0  0  0  0  0
    7.8170    5.9382   -3.6935 C   0  0  0  0  0  0  0  0  0  0  0  0
    8.8015    6.3711   -4.5947 C   0  0  0  0  0  0  0  0  0  0  0  0
    9.3103    5.2697   -5.1903 C   0  0  0  0  0  0  0  0  0  0  0  0
    8.6954    4.1843   -4.7005 O   0  0  0  0  0  0  0  0  0  0  0  0
   10.3949    5.2631   -6.2366 C   0  0  0  0  0  0  0  0  0  0  0  0
   11.7608    5.1621   -5.5546 C   0  0  0  0  0  0  0  0  0  0  0  0
   12.8454    5.1555   -6.6008 C   0  0  0  0  0  0  0  0  0  0  0  0
   12.5557    5.2246   -7.7718 O   0  0  0  0  0  0  0  0  0  0  0  0
    3.4297   -0.8141    1.5157 S   0  0  0  0  0  0  0  0  0  0  0  0
    4.4237    0.0205    2.0942 O   0  0  0  0  0  0  0  0  0  0  0  0
    3.0218   -2.0381    2.1112 O   0  0  0  0  0  0  0  0  0  0  0  0
    2.0666    0.1129    1.3578 N   0  0  0  0  0  0  0  0  0  0  0  0
    0.7388   -0.5130    1.2952 C   0  0  0  0  0  0  0  0  0  0  0  0
    0.0182   -0.0158    0.0381 C   0  0  0  0  0  0  0  0  0  0  0  0
   -0.0078    1.5143    0.0413 C   0  0  0  0  0  0  0  0  0  0  0  0
    1.4255    2.0506    0.0204 C   0  0  0  0  0  0  0  0  0  0  0  0
    2.1620    1.5768    1.2773 C   0  0  0  0  0  0  0  0  0  0  0  0
    6.2233   -2.7826   -3.9939 H   0  0  0  0  0  0  0  0  0  0  0  0
    4.5436   -2.7204   -4.5796 H   0  0  0  0  0  0  0  0  0  0  0  0
    5.5477   -1.2507   -4.5981 H   0  0  0  0  0  0  0  0  0  0  0  0
    3.6031   -3.5548   -2.5032 H   0  0  0  0  0  0  0  0  0  0  0  0
    2.8391   -3.0065   -0.2291 H   0  0  0  0  0  0  0  0  0  0  0  0
    5.2316    0.5230   -0.2629 H   0  0  0  0  0  0  0  0  0  0  0  0
    6.8859   -0.2091   -3.2836 H   0  0  0  0  0  0  0  0  0  0  0  0
    7.6968    1.9481   -3.9510 H   0  0  0  0  0  0  0  0  0  0  0  0
    6.2329    4.1105   -2.3336 H   0  0  0  0  0  0  0  0  0  0  0  0
    7.2079    6.5602   -3.0544 H   0  0  0  0  0  0  0  0  0  0  0  0
    9.0950    7.3936   -4.7806 H   0  0  0  0  0  0  0  0  0  0  0  0
   10.2555    4.4089   -6.8991 H   0  0  0  0  0  0  0  0  0  0  0  0
   10.3458    6.1846   -6.8167 H   0  0  0  0  0  0  0  0  0  0  0  0
   11.9002    6.0163   -4.8921 H   0  0  0  0  0  0  0  0  0  0  0  0
   11.8099    4.2405   -4.9745 H   0  0  0  0  0  0  0  0  0  0  0  0
    0.1632   -0.2382    2.1791 H   0  0  0  0  0  0  0  0  0  0  0  0
    0.8451   -1.5969    1.2508 H   0  0  0  0  0  0  0  0  0  0  0  0
   -1.0030   -0.3970    0.0293 H   0  0  0  0  0  0  0  0  0  0  0  0
    0.5463   -0.3689   -0.8477 H   0  0  0  0  0  0  0  0  0  0  0  0
   -0.5416    1.8704   -0.8398 H   0  0  0  0  0  0  0  0  0  0  0  0
   -0.5144    1.8670    0.9397 H   0  0  0  0  0  0  0  0  0  0  0  0
    1.9404    1.6781   -0.8651 H   0  0  0  0  0  0  0  0  0  0  0  0
    1.4060    3.1402   -0.0008 H   0  0  0  0  0  0  0  0  0  0  0  0
    1.7025    2.0220    2.1598 H   0  0  0  0  0  0  0  0  0  0  0  0
    3.2097    1.8721    1.2200 H   0  0  0  0  0  0  0  0  0  0  0  0
   14.1333    5.0729   -6.2318 O   0  0  0  0  0  1  0  0  0  0  0  0
  1  2  1  0  0  0  0
  1 31  1  0  0  0  0
  1 32  1  0  0  0  0
  1 33  1  0  0  0  0
  2  7  2  0  0  0  0
  2  3  1  0  0  0  0
  3  4  2  0  0  0  0
  3 34  1  0  0  0  0
  4  5  1  0  0  0  0
  4 35  1  0  0  0  0
  5  6  2  0  0  0  0
  5 22  1  0  0  0  0
  6  7  1  0  0  0  0
  6 36  1  0  0  0  0
  7  8  1  0  0  0  0
  8  9  1  0  0  0  0
  8 37  1  0  0  0  0
  9 10  2  0  0  0  0
  9 11  1  0  0  0  0
 11 12  2  0  0  0  0
 11 38  1  0  0  0  0
 12 13  1  0  0  0  0
 12 39  1  0  0  0  0
 13 17  1  0  0  0  0
 13 14  2  0  0  0  0
 14 15  1  0  0  0  0
 14 40  1  0  0  0  0
 15 16  2  0  0  0  0
 15 41  1  0  0  0  0
 16 17  1  0  0  0  0
 16 18  1  0  0  0  0
 18 19  1  0  0  0  0
 18 42  1  0  0  0  0
 18 43  1  0  0  0  0
 19 20  1  0  0  0  0
 19 44  1  0  0  0  0
 19 45  1  0  0  0  0
 20 21  2  0  0  0  0
 20 56  1  0  0  0  0
 22 23  2  0  0  0  0
 22 24  2  0  0  0  0
 22 25  1  0  0  0  0
 25 30  1  0  0  0  0
 25 26  1  0  0  0  0
 26 27  1  0  0  0  0
 26 46  1  0  0  0  0
 26 47  1  0  0  0  0
 27 28  1  0  0  0  0
 27 48  1  0  0  0  0
 27 49  1  0  0  0  0
 28 29  1  0  0  0  0
 28 50  1  0  0  0  0
 28 51  1  0  0  0  0
 29 30  1  0  0  0  0
 29 52  1  0  0  0  0
 29 53  1  0  0  0  0
 30 54  1  0  0  0  0
 30 55  1  0  0  0  0
M  END
$$$$
ZINC48724202
 OpenBabel01252620473D

 30 31  0  0  0  0  0  0  0  0999 V2000
   -0.0187    1.5258    0.0104 C   0  0  0  0  0  0  0  0  0  0  0  0
    0.0021   -0.0041    0.0020 C   0  0  0  0  0  0  0  0  0  0  0  0
   -1.4117   -0.5257    0.0127 C   0  0  0  0  0  0  0  0  0  0  0  0
   -2.1955   -0.8120   -1.0040 N   0  0  0  0  0  0  0  0  0  0  0  0
   -3.3716   -1.2463   -0.8452 N   0  0  0  0  0  0  0  0  0  0  0  0
   -3.8266   -1.4177    0.3961 C   0  0  0  0  0  0  0  0  0  0  0  0
   -2.3938   -0.8997    1.3308 S   0  0  0  0  0  0  0  0  0  0  0  0
   -5.0285   -1.8623    0.8259 N   0  0  0  0  0  0  0  0  0  0  0  0
   -5.9487   -2.1999   -0.0401 C   0  0  0  0  0  0  0  0  0  0  0  0
   -5.6974   -2.1039   -1.3667 O   0  5  0  0  0  0  0  0  0  0  0  0
   -7.2643   -2.6865    0.4303 C   0  0  0  0  0  0  0  0  0  0  0  0
   -8.1194   -3.0002   -0.3744 O   0  0  0  0  0  0  0  0  0  0  0  0
   -7.5145   -2.7821    1.7512 N   0  0  0  0  0  0  0  0  0  0  0  0
   -6.5771   -2.4318    2.8283 C   0  0  0  0  0  0  0  0  0  0  0  0
   -7.2861   -2.7275    4.1668 C   0  0  0  0  0  0  0  0  0  0  0  0
   -8.3730   -3.7589    3.7639 C   0  0  0  0  0  0  0  0  0  0  0  0
   -8.7756   -3.2490    2.3552 C   0  0  0  0  0  0  0  0  0  0  0  0
    1.0039    1.9031    0.0027 H   0  0  0  0  0  0  0  0  0  0  0  0
   -0.5459    1.8868   -0.8726 H   0  0  0  0  0  0  0  0  0  0  0  0
   -0.5289    1.8773    0.9072 H   0  0  0  0  0  0  0  0  0  0  0  0
    0.5123   -0.3556   -0.8948 H   0  0  0  0  0  0  0  0  0  0  0  0
    0.5293   -0.3651    0.8851 H   0  0  0  0  0  0  0  0  0  0  0  0
   -5.6743   -3.0370    2.7454 H   0  0  0  0  0  0  0  0  0  0  0  0
   -6.3232   -1.3735    2.7692 H   0  0  0  0  0  0  0  0  0  0  0  0
   -6.5898   -3.1615    4.8844 H   0  0  0  0  0  0  0  0  0  0  0  0
   -7.7428   -1.8234    4.5693 H   0  0  0  0  0  0  0  0  0  0  0  0
   -7.9575   -4.7654    3.7147 H   0  0  0  0  0  0  0  0  0  0  0  0
   -9.2205   -3.7208    4.4482 H   0  0  0  0  0  0  0  0  0  0  0  0
   -9.4853   -2.4256    2.4358 H   0  0  0  0  0  0  0  0  0  0  0  0
   -9.2009   -4.0611    1.7655 H   0  0  0  0  0  0  0  0  0  0  0  0
  1  2  1  0  0  0  0
  1 18  1  0  0  0  0
  1 19  1  0  0  0  0
  1 20  1  0  0  0  0
  2  3  1  0  0  0  0
  2 21  1  0  0  0  0
  2 22  1  0  0  0  0
  3  7  1  0  0  0  0
  3  4  2  0  0  0  0
  4  5  1  0  0  0  0
  5  6  2  0  0  0  0
  6  7  1  0  0  0  0
  6  8  1  0  0  0  0
  8  9  2  0  0  0  0
  9 10  1  0  0  0  0
  9 11  1  0  0  0  0
 11 12  2  0  0  0  0
 11 13  1  0  0  0  0
 13 17  1  0  0  0  0
 13 14  1  0  0  0  0
 14 15  1  0  0  0  0
 14 23  1  0  0  0  0
 14 24  1  0  0  0  0
 15 16  1  0  0  0  0
 15 25  1  0  0  0  0
 15 26  1  0  0  0  0
 16 17  1  0  0  0  0
 16 27  1  0  0  0  0
 16 28  1  0  0  0  0
 17 29  1  0  0  0  0
 17 30  1  0  0  0  0
M  CHG  1  10  -1
M  END
$$$$
ZINC32586287
 OpenBabel01252620473D

 28 29  0  0  0  0  0  0  0  0999 V2000
   -6.1406   -1.3170    2.0558 C   0  0  0  0  0  0  0  0  0  0  0  0
   -5.1735   -1.0553    3.0748 O   0  0  0  0  0  0  0  0  0  0  0  0
   -4.0639   -0.3637    2.7086 C   0  0  0  0  0  0  0  0  0  0  0  0
   -3.0888   -0.0795    3.6559 C   0  0  0  0  0  0  0  0  0  0  0  0
   -1.9618    0.6257    3.2734 C   0  0  0  0  0  0  0  0  0  0  0  0
   -1.8492    1.0255    1.9429 C   0  0  0  0  0  0  0  0  0  0  0  0
   -2.8662    0.7099    1.0545 C   0  0  0  0  0  0  0  0  0  0  0  0
   -3.9245    0.0306    1.4547 N   0  0  0  0  0  0  0  0  0  0  0  0
   -0.7268    1.7415    1.5104 N   0  0  0  0  0  2  0  0  0  0  0  0
    0.0369    1.3138    0.1047 S   0  0  0  0  0  0  0  0  0  0  0  0
    1.1820    2.1481   -0.0055 O   0  0  0  0  0  0  0  0  0  0  0  0
   -0.9651    1.2586   -0.9014 O   0  0  0  0  0  0  0  0  0  0  0  0
    0.6311   -0.3317    0.3144 C   0  0  0  0  0  0  0  0  0  0  0  0
    0.1264   -1.3542   -0.4477 C   0  0  0  0  0  0  0  0  0  0  0  0
    0.6465   -2.6217   -0.2287 C   0  0  0  0  0  0  0  0  0  0  0  0
    1.8318   -2.3127    1.0684 S   0  0  0  0  0  0  0  0  0  0  0  0
    1.5922   -0.6042    1.2385 C   0  0  0  0  0  0  0  0  0  0  0  0
    2.4574    0.5913    2.4208 Br  0  0  0  0  0  0  0  0  0  0  0  0
    0.3074   -3.8838   -0.8864 C   0  0  0  0  0  0  0  0  0  0  0  0
   -0.5372   -3.9058   -1.7616 O   0  0  0  0  0  0  0  0  0  0  0  0
    0.9313   -5.0232   -0.5222 O   0  0  0  0  0  1  0  0  0  0  0  0
   -6.9823   -1.8802    2.4851 H   0  0  0  0  0  0  0  0  0  0  0  0
   -5.6760   -1.9075    1.2524 H   0  0  0  0  0  0  0  0  0  0  0  0
   -6.5079   -0.3647    1.6456 H   0  0  0  0  0  0  0  0  0  0  0  0
   -3.2088   -0.4053    4.6786 H   0  0  0  0  0  0  0  0  0  0  0  0
   -1.1877    0.8611    3.9888 H   0  0  0  0  0  0  0  0  0  0  0  0
   -2.7890    1.0194    0.0227 H   0  0  0  0  0  0  0  0  0  0  0  0
   -0.6398   -1.1797   -1.1886 H   0  0  0  0  0  0  0  0  0  0  0  0
  1  2  1  0  0  0  0
  1 22  1  0  0  0  0
  1 23  1  0  0  0  0
  1 24  1  0  0  0  0
  2  3  1  0  0  0  0
  3  8  2  0  0  0  0
  3  4  1  0  0  0  0
  4  5  2  0  0  0  0
  4 25  1  0  0  0  0
  5  6  1  0  0  0  0
  5 26  1  0  0  0  0
  6  7  2  0  0  0  0
  6  9  1  0  0  0  0
  7  8  1  0  0  0  0
  7 27  1  0  0  0  0
  9 10  1  0  0  0  0
 10 11  2  0  0  0  0
 10 12  2  0  0  0  0
 10 13  1  0  0  0  0
 13 17  2  0  0  0  0
 13 14  1  0  0  0  0
 14 15  2  0  0  0  0
 14 28  1  0  0  0  0
 15 16  1  0  0  0  0
 15 19  1  0  0  0  0
 16 17  1  0  0  0  0
 17 18  1  0  0  0  0
 19 20  2  0  0  0  0
 19 21  1  0  0  0  0
M  END
$$$$
ZINC49550642
 OpenBabel01252620473D

 33 34  0  0  1  0  0  0  0  0999 V2000
   -0.0187    1.5258    0.0104 C   0  0  0  0  0  0  0  0  0  0  0  0
    0.0021   -0.0041    0.0020 C   0  0  2  0  0  0  0  0  0  0  0  0
    0.5293   -0.3651    0.8851 H   0  0  0  0  0  0  0  0  0  0  0  0
    0.7074   -0.4901   -1.2379 C   0  0  0  0  0  0  0  0  0  0  0  0
   -0.0214   -0.8172   -2.3647 C   0  0  0  0  0  0  0  0  0  0  0  0
    0.6249   -1.2636   -3.5025 C   0  0  0  0  0  0  0  0  0  0  0  0
    2.0027   -1.3838   -3.5168 C   0  0  0  0  0  0  0  0  0  0  0  0
    2.7375   -1.0581   -2.3940 C   0  0  0  0  0  0  0  0  0  0  0  0
    2.0916   -0.6042   -1.2507 C   0  0  0  0  0  0  0  0  0  0  0  0
    2.8321   -0.2689   -0.1149 N   0  0  0  0  0  2  0  0  0  0  0  0
    4.4824   -0.4056   -0.1323 S   0  0  0  0  0  0  0  0  0  0  0  0
    4.7738   -1.7914   -0.2501 O   0  0  0  0  0  0  0  0  0  0  0  0
    4.9598    0.5552   -1.0641 O   0  0  0  0  0  0  0  0  0  0  0  0
    5.0636    0.0983    1.4530 C   0  0  0  0  0  0  0  0  0  0  0  0
    5.4137    1.4002    1.8255 C   0  0  0  0  0  0  0  0  0  0  0  0
    5.7962    1.3785    3.0765 N   0  0  0  0  0  0  0  0  0  0  0  0
    5.7015    0.0601    3.5403 N   0  0  0  0  0  0  0  0  0  0  0  0
    5.2445   -0.7049    2.5268 C   0  0  0  0  0  0  0  0  0  0  0  0
    6.0341   -0.4051    4.8891 C   0  0  0  0  0  0  0  0  0  0  0  0
   -1.3386   -0.4987    0.0122 O   0  0  0  0  0  0  0  0  0  0  0  0
    1.0039    1.9031    0.0027 H   0  0  0  0  0  0  0  0  0  0  0  0
   -0.5459    1.8868   -0.8726 H   0  0  0  0  0  0  0  0  0  0  0  0
   -0.5289    1.8773    0.9072 H   0  0  0  0  0  0  0  0  0  0  0  0
   -1.0974   -0.7244   -2.3568 H   0  0  0  0  0  0  0  0  0  0  0  0
    0.0526   -1.5194   -4.3819 H   0  0  0  0  0  0  0  0  0  0  0  0
    2.5044   -1.7332   -4.4071 H   0  0  0  0  0  0  0  0  0  0  0  0
    3.8132   -1.1526   -2.4057 H   0  0  0  0  0  0  0  0  0  0  0  0
    5.3750    2.2727    1.1901 H   0  0  0  0  0  0  0  0  0  0  0  0
    5.0590   -1.7682    2.5652 H   0  0  0  0  0  0  0  0  0  0  0  0
    5.1489   -0.3462    5.5223 H   0  0  0  0  0  0  0  0  0  0  0  0
    6.3794   -1.4379    4.8424 H   0  0  0  0  0  0  0  0  0  0  0  0
    6.8216    0.2227    5.3060 H   0  0  0  0  0  0  0  0  0  0  0  0
   -1.8531   -0.2245    0.7836 H   0  0  0  0  0  0  0  0  0  0  0  0
  1  2  1  0  0  0  0
  1 21  1  0  0  0  0
  1 22  1  0  0  0  0
  1 23  1  0  0  0  0
  2  3  1  1  0  0  0
  2  4  1  0  0  0  0
  2 20  1  0  0  0  0
  4  9  2  0  0  0  0
  4  5  1  0  0  0  0
  5  6  2  0  0  0  0
  5 24  1  0  0  0  0
  6  7  1  0  0  0  0
  6 25  1  0  0  0  0
  7  8  2  0  0  0  0
  7 26  1  0  0  0  0
  8  9  1  0  0  0  0
  8 27  1  0  0  0  0
  9 10  1  0  0  0  0
 10 11  1  0  0  0  0
 11 12  2  0  0  0  0
 11 13  2  0  0  0  0
 11 14  1  0  0  0  0
 14 18  2  0  0  0  0
 14 15  1  0  0  0  0
 15 16  2  0  0  0  0
 15 28  1  0  0  0  0
 16 17  1  0  0  0  0
 17 18  1  0  0  0  0
 17 19  1  0  0  0  0
 18 29  1  0  0  0  0
 19 30  1  0  0  0  0
 19 31  1  0  0  0  0
 19 32  1  0  0  0  0
 20 33  1  0  0  0  0
M  END
$$$$
ZINC40564251
 OpenBabel01252620473D

 41 43  0  0  1  0  0  0  0  0999 V2000
   -0.0184    1.5028    0.0103 C   0  0  0  0  0  0  0  0  0  0  0  0
    0.0021   -0.0041    0.0020 C   0  0  0  0  0  0  0  0  0  0  0  0
    0.0057   -0.6861   -1.2021 C   0  0  0  0  0  0  0  0  0  0  0  0
    0.0244   -2.0650   -1.2174 C   0  0  0  0  0  0  0  0  0  0  0  0
    0.0401   -2.7734   -0.0132 C   0  0  0  0  0  0  0  0  0  0  0  0
    0.0368   -2.0782    1.1987 C   0  0  0  0  0  0  0  0  0  0  0  0
    0.0229   -0.6990    1.1986 C   0  0  0  0  0  0  0  0  0  0  0  0
    0.0596   -4.2490   -0.0214 C   0  0  0  0  0  0  0  0  0  0  0  0
    0.0706   -5.0509    1.0849 C   0  0  0  0  0  0  0  0  0  0  0  0
    0.0880   -6.3735    0.6348 C   0  0  0  0  0  0  0  0  0  0  0  0
    0.0869   -6.3241   -0.7480 C   0  0  0  0  0  0  0  0  0  0  0  0
    0.0637   -5.0267   -1.1193 O   0  0  0  0  0  0  0  0  0  0  0  0
    0.1013   -7.4357   -1.6178 C   0  0  0  0  0  0  0  0  0  0  0  0
    0.0983   -7.2448   -2.9693 C   0  0  0  0  0  0  0  0  0  0  0  0
    0.1051   -8.2369   -4.0570 C   0  0  0  0  0  0  0  0  0  0  0  0
    0.1145   -9.4335   -3.8301 O   0  0  0  0  0  0  0  0  0  0  0  0
    0.1000   -7.7655   -5.2925 N   0  0  0  0  0  0  0  0  0  0  0  0
    0.0896   -6.4395   -5.5397 C   0  0  0  0  0  0  0  0  0  0  0  0
    0.0815   -5.6394   -7.0532 S   0  0  0  0  0  0  0  0  0  0  0  0
    0.0773   -5.7217   -3.9048 S   0  0  0  0  0  0  0  0  0  0  0  0
    0.1063   -8.7040   -6.4174 C   0  0  1  0  0  0  0  0  0  0  0  0
    0.1148   -9.7258   -6.0380 H   0  0  0  0  0  0  0  0  0  0  0  0
   -1.1456   -8.4868   -7.2697 C   0  0  0  0  0  0  0  0  0  0  0  0
   -2.3693   -8.8388   -6.4637 C   0  0  0  0  0  0  0  0  0  0  0  0
   -2.2511   -9.2273   -5.3141 O   0  0  0  0  0  0  0  0  0  0  0  0
   -3.4776   -8.7350   -6.9612 O   0  0  0  0  0  1  0  0  0  0  0  0
    1.3340   -8.4705   -7.2595 C   0  0  0  0  0  0  0  0  0  0  0  0
    2.1300   -7.6008   -6.9488 O   0  0  0  0  0  0  0  0  0  0  0  0
    1.5314   -9.1513   -8.2515 O   0  0  0  0  0  1  0  0  0  0  0  0
    1.0042    1.8801    0.0026 H   0  0  0  0  0  0  0  0  0  0  0  0
   -0.5455    1.8639   -0.8728 H   0  0  0  0  0  0  0  0  0  0  0  0
   -0.5286    1.8543    0.9071 H   0  0  0  0  0  0  0  0  0  0  0  0
   -0.0064   -0.1371   -2.1322 H   0  0  0  0  0  0  0  0  0  0  0  0
    0.0265   -2.5960   -2.1579 H   0  0  0  0  0  0  0  0  0  0  0  0
    0.0488   -2.6193    2.1332 H   0  0  0  0  0  0  0  0  0  0  0  0
    0.0244   -0.1602    2.1345 H   0  0  0  0  0  0  0  0  0  0  0  0
    0.0671   -4.7237    2.1141 H   0  0  0  0  0  0  0  0  0  0  0  0
    0.1005   -7.2626    1.2478 H   0  0  0  0  0  0  0  0  0  0  0  0
    0.1147   -8.4373   -1.2139 H   0  0  0  0  0  0  0  0  0  0  0  0
   -1.2002   -7.4420   -7.5756 H   0  0  0  0  0  0  0  0  0  0  0  0
   -1.0978   -9.1223   -8.1540 H   0  0  0  0  0  0  0  0  0  0  0  0
  1  2  1  0  0  0  0
  1 30  1  0  0  0  0
  1 31  1  0  0  0  0
  1 32  1  0  0  0  0
  2  7  2  0  0  0  0
  2  3  1  0  0  0  0
  3  4  2  0  0  0  0
  3 33  1  0  0  0  0
  4  5  1  0  0  0  0
  4 34  1  0  0  0  0
  5  6  2  0  0  0  0
  5  8  1  0  0  0  0
  6  7  1  0  0  0  0
  6 35  1  0  0  0  0
  7 36  1  0  0  0  0
  8 12  1  0  0  0  0
  8  9  2  0  0  0  0
  9 10  1  0  0  0  0
  9 37  1  0  0  0  0
 10 11  2  0  0  0  0
 10 38  1  0  0  0  0
 11 12  1  0  0  0  0
 11 13  1  0  0  0  0
 13 14  2  0  0  0  0
 13 39  1  0  0  0  0
 14 20  1  0  0  0  0
 14 15  1  0  0  0  0
 15 16  2  0  0  0  0
 15 17  1  0  0  0  0
 17 18  1  0  0  0  0
 17 21  1  0  0  0  0
 18 19  2  0  0  0  0
 18 20  1  0  0  0  0
 21 22  1  1  0  0  0
 21 23  1  0  0  0  0
 21 27  1  0  0  0  0
 23 24  1  0  0  0  0
 23 40  1  0  0  0  0
 23 41  1  0  0  0  0
 24 25  2  0  0  0  0
 24 26  1  0  0  0  0
 27 28  2  0  0  0  0
 27 29  1  0  0  0  0
M  END
$$$$
ZINC19620112
 OpenBabel01252620473D

 37 38  0  0  0  0  0  0  0  0999 V2000
   -1.0315    5.0054    3.9294 C   0  0  0  0  0  0  0  0  0  0  0  0
   -1.6432    3.6842    3.5403 C   0  0  0  0  0  0  0  0  0  0  0  0
   -2.3994    3.5748    2.3837 C   0  0  0  0  0  0  0  0  0  0  0  0
   -2.9436    2.3415    2.0621 C   0  0  0  0  0  0  0  0  0  0  0  0
   -2.7266    1.3117    2.8635 N   0  0  0  0  0  0  0  0  0  0  0  0
   -1.9989    1.4499    3.9619 C   0  0  0  0  0  0  0  0  0  0  0  0
   -1.4603    2.6138    4.2953 N   0  0  0  0  0  0  0  0  0  0  0  0
   -1.7922    0.3513    4.7781 N   0  0  0  0  0  2  0  0  0  0  0  0
   -2.4514   -1.1139    4.3770 S   0  0  0  0  0  0  0  0  0  0  0  0
   -3.8614   -0.9643    4.4708 O   0  0  0  0  0  0  0  0  0  0  0  0
   -1.8079   -1.5353    3.1822 O   0  0  0  0  0  0  0  0  0  0  0  0
   -1.9817   -2.2577    5.6323 C   0  0  0  0  0  0  0  0  0  0  0  0
   -0.8068   -2.9762    5.5064 C   0  0  0  0  0  0  0  0  0  0  0  0
   -0.4356   -3.8734    6.4883 C   0  0  0  0  0  0  0  0  0  0  0  0
   -1.2441   -4.0538    7.6036 C   0  0  0  0  0  0  0  0  0  0  0  0
   -2.4237   -3.3304    7.7269 C   0  0  0  0  0  0  0  0  0  0  0  0
   -2.7860   -2.4307    6.7439 C   0  0  0  0  0  0  0  0  0  0  0  0
   -0.8718   -4.9613    8.5990 N   0  0  0  0  0  0  0  0  0  0  0  0
   -1.8116   -5.6941    9.2284 C   0  0  0  0  0  0  0  0  0  0  0  0
   -2.9651   -5.6596    8.8475 O   0  0  0  0  0  0  0  0  0  0  0  0
   -1.4393   -6.5398   10.3820 C   0  0  0  0  0  0  0  0  0  0  0  0
   -1.9494   -7.7767   10.5004 C   0  0  0  0  0  0  0  0  0  0  0  0
   -3.0546   -8.2049    9.6243 C   0  0  0  0  0  0  0  0  0  0  0  0
   -3.0260   -7.9412    8.4305 O   0  0  0  0  0  0  0  0  0  0  0  0
   -4.0003   -8.8240   10.0912 O   0  0  0  0  0  1  0  0  0  0  0  0
   -0.0388    5.0904    3.4874 H   0  0  0  0  0  0  0  0  0  0  0  0
   -1.6613    5.8181    3.5673 H   0  0  0  0  0  0  0  0  0  0  0  0
   -0.9521    5.0634    5.0150 H   0  0  0  0  0  0  0  0  0  0  0  0
   -2.5613    4.4322    1.7471 H   0  0  0  0  0  0  0  0  0  0  0  0
   -3.5380    2.2227    1.1683 H   0  0  0  0  0  0  0  0  0  0  0  0
   -0.1790   -2.8357    4.6389 H   0  0  0  0  0  0  0  0  0  0  0  0
    0.4819   -4.4344    6.3892 H   0  0  0  0  0  0  0  0  0  0  0  0
   -3.0545   -3.4683    8.5927 H   0  0  0  0  0  0  0  0  0  0  0  0
   -3.7005   -1.8645    6.8414 H   0  0  0  0  0  0  0  0  0  0  0  0
    0.0630   -5.0637    8.8369 H   0  0  0  0  0  0  0  0  0  0  0  0
   -0.7570   -6.1632   11.1297 H   0  0  0  0  0  0  0  0  0  0  0  0
   -1.5498   -8.4574   11.2375 H   0  0  0  0  0  0  0  0  0  0  0  0
  1  2  1  0  0  0  0
  1 26  1  0  0  0  0
  1 27  1  0  0  0  0
  1 28  1  0  0  0  0
  2  7  2  0  0  0  0
  2  3  1  0  0  0  0
  3  4  2  0  0  0  0
  3 29  1  0  0  0  0
  4  5  1  0  0  0  0
  4 30  1  0  0  0  0
  5  6  2  0  0  0  0
  6  7  1  0  0  0  0
  6  8  1  0  0  0  0
  8  9  1  0  0  0  0
  9 10  2  0  0  0  0
  9 11  2  0  0  0  0
  9 12  1  0  0  0  0
 12 17  2  0  0  0  0
 12 13  1  0  0  0  0
 13 14  2  0  0  0  0
 13 31  1  0  0  0  0
 14 15  1  0  0  0  0
 14 32  1  0  0  0  0
 15 16  2  0  0  0  0
 15 18  1  0  0  0  0
 16 17  1  0  0  0  0
 16 33  1  0  0  0  0
 17 34  1  0  0  0  0
 18 19  1  0  0  0  0
 18 35  1  0  0  0  0
 19 20  2  0  0  0  0
 19 21  1  0  0  0  0
 21 22  2  0  0  0  0
 21 36  1  0  0  0  0
 22 23  1  0  0  0  0
 22 37  1  0  0  0  0
 23 24  2  0  0  0  0
 23 25  1  0  0  0  0
M  END
$$$$
ZINC13232177
 OpenBabel01252620473D

 42 43  0  0  0  0  0  0  0  0999 V2000
   -2.6112    6.7985   -1.5009 C   0  0  0  0  0  0  0  0  0  0  0  0
   -1.7670    5.5224   -1.5005 C   0  0  0  0  0  0  0  0  0  0  0  0
   -1.4669    5.1099   -0.0581 C   0  0  0  0  0  0  0  0  0  0  0  0
   -0.6354    3.8530   -0.0577 C   0  0  0  0  0  0  0  0  0  0  0  0
    0.6658    3.7881   -0.0735 N   0  0  0  0  0  0  0  0  0  0  0  0
    1.0465    2.5605   -0.0678 N   0  0  0  0  0  0  0  0  0  0  0  0
   -0.0008    1.7690   -0.0478 C   0  0  0  0  0  0  0  0  0  0  0  0
   -1.1070    2.5693   -0.0467 N   0  0  0  0  0  0  0  0  0  0  0  0
   -2.5081    2.1417   -0.0335 C   0  0  0  0  0  0  0  0  0  0  0  0
   -2.9789    2.0074    1.3917 C   0  0  0  0  0  0  0  0  0  0  0  0
   -2.2218    2.2445    2.3030 O   0  0  0  0  0  0  0  0  0  0  0  0
    0.0177    0.0072   -0.0329 S   0  0  0  0  0  0  0  0  0  0  0  0
    1.8033   -0.2886   -0.0520 C   0  0  0  0  0  0  0  0  0  0  0  0
    2.0669   -1.7723   -0.0425 C   0  0  0  0  0  0  0  0  0  0  0  0
    1.1389   -2.5529   -0.0245 O   0  0  0  0  0  0  0  0  0  0  0  0
    3.3338   -2.2318   -0.0539 N   0  0  0  0  0  0  0  0  0  0  0  0
    3.5797   -3.5987    0.0484 C   0  0  0  0  0  0  0  0  0  0  0  0
    2.7123   -4.5091   -0.5387 C   0  0  0  0  0  0  0  0  0  0  0  0
    2.9606   -5.8647   -0.4396 C   0  0  0  0  0  0  0  0  0  0  0  0
    4.0702   -6.3261    0.2535 C   0  0  0  0  0  0  0  0  0  0  0  0
    4.9386   -5.4370    0.8468 C   0  0  0  0  0  0  0  0  0  0  0  0
    4.7030   -4.0625    0.7508 C   0  0  0  0  0  0  0  0  0  0  0  0
    5.6285   -3.1063    1.3828 C   0  0  0  0  0  0  0  0  0  0  0  0
    5.3698   -1.9189    1.3814 O   0  0  0  0  0  0  0  0  0  0  0  0
    1.8747   -6.9974   -1.1823 Cl  0  0  0  0  0  0  0  0  0  0  0  0
   -3.5472    6.6151   -0.9732 H   0  0  0  0  0  0  0  0  0  0  0  0
   -2.0628    7.5970   -1.0011 H   0  0  0  0  0  0  0  0  0  0  0  0
   -2.8250    7.0924   -2.5285 H   0  0  0  0  0  0  0  0  0  0  0  0
   -0.8310    5.7059   -2.0281 H   0  0  0  0  0  0  0  0  0  0  0  0
   -2.3153    4.7239   -2.0002 H   0  0  0  0  0  0  0  0  0  0  0  0
   -2.4029    4.9265    0.4696 H   0  0  0  0  0  0  0  0  0  0  0  0
   -0.9186    5.9084    0.4417 H   0  0  0  0  0  0  0  0  0  0  0  0
   -3.1189    2.8824   -0.5496 H   0  0  0  0  0  0  0  0  0  0  0  0
   -2.5993    1.1801   -0.5385 H   0  0  0  0  0  0  0  0  0  0  0  0
    2.2348    0.1513   -0.9511 H   0  0  0  0  0  0  0  0  0  0  0  0
    2.2565    0.1666    0.8286 H   0  0  0  0  0  0  0  0  0  0  0  0
    4.0744   -1.6104   -0.1334 H   0  0  0  0  0  0  0  0  0  0  0  0
    1.8442   -4.1575   -1.0765 H   0  0  0  0  0  0  0  0  0  0  0  0
    4.2537   -7.3878    0.3286 H   0  0  0  0  0  0  0  0  0  0  0  0
    5.8006   -5.8014    1.3859 H   0  0  0  0  0  0  0  0  0  0  0  0
   -4.2394    1.6243    1.6489 O   0  0  0  0  0  1  0  0  0  0  0  0
    6.7620   -3.5483    1.9624 O   0  0  0  0  0  1  0  0  0  0  0  0
  1  2  1  0  0  0  0
  1 26  1  0  0  0  0
  1 27  1  0  0  0  0
  1 28  1  0  0  0  0
  2  3  1  0  0  0  0
  2 29  1  0  0  0  0
  2 30  1  0  0  0  0
  3  4  1  0  0  0  0
  3 31  1  0  0  0  0
  3 32  1  0  0  0  0
  4  8  1  0  0  0  0
  4  5  2  0  0  0  0
  5  6  1  0  0  0  0
  6  7  2  0  0  0  0
  7  8  1  0  0  0  0
  7 12  1  0  0  0  0
  8  9  1  0  0  0  0
  9 10  1  0  0  0  0
  9 33  1  0  0  0  0
  9 34  1  0  0  0  0
 10 11  2  0  0  0  0
 10 41  1  0  0  0  0
 12 13  1  0  0  0  0
 13 14  1  0  0  0  0
 13 35  1  0  0  0  0
 13 36  1  0  0  0  0
 14 15  2  0  0  0  0
 14 16  1  0  0  0  0
 16 17  1  0  0  0  0
 16 37  1  0  0  0  0
 17 22  2  0  0  0  0
 17 18  1  0  0  0  0
 18 19  2  0  0  0  0
 18 38  1  0  0  0  0
 19 20  1  0  0  0  0
 19 25  1  0  0  0  0
 20 21  2  0  0  0  0
 20 39  1  0  0  0  0
 21 22  1  0  0  0  0
 21 40  1  0  0  0  0
 22 23  1  0  0  0  0
 23 24  2  0  0  0  0
 23 42  1  0  0  0  0
M  END
$$$$
ZINC49360807
 OpenBabel01252620473D

 29 29  0  0  1  0  0  0  0  0999 V2000
   -0.0187    1.5258    0.0104 C   0  0  0  0  0  0  0  0  0  0  0  0
    0.0021   -0.0041    0.0020 C   0  0  0  0  0  0  0  0  0  0  0  0
    0.7182   -0.4975   -1.2568 C   0  0  0  0  0  0  0  0  0  0  0  0
    0.7386   -2.0043   -1.2651 C   0  0  0  0  0  0  0  0  0  0  0  0
    1.6601   -2.7669   -0.7482 N   0  0  0  0  0  0  0  0  0  0  0  0
    1.3641   -4.0038   -0.9330 N   0  0  0  0  0  0  0  0  0  0  0  0
    0.2276   -4.0980   -1.5836 C   0  0  0  0  0  0  0  0  0  0  0  0
   -0.2095   -2.8247   -1.8112 N   0  0  0  0  0  0  0  0  0  0  0  0
   -1.4377   -2.4210   -2.5004 C   0  0  1  0  0  0  0  0  0  0  0  0
   -1.5010   -1.3331   -2.5225 H   0  0  0  0  0  0  0  0  0  0  0  0
   -1.4199   -2.9601   -3.9321 C   0  0  0  0  0  0  0  0  0  0  0  0
   -2.6310   -2.9789   -1.7683 C   0  0  0  0  0  0  0  0  0  0  0  0
   -2.4718   -3.6453   -0.7731 O   0  0  0  0  0  0  0  0  0  0  0  0
   -3.8706   -2.7354   -2.2219 O   0  0  0  0  0  0  0  0  0  0  0  0
   -4.9550   -3.2953   -1.4786 C   0  0  0  0  0  0  0  0  0  0  0  0
   -0.5834   -5.5861   -2.0658 S   0  0  0  0  0  1  0  0  0  0  0  0
    1.0039    1.9031    0.0027 H   0  0  0  0  0  0  0  0  0  0  0  0
   -0.5459    1.8868   -0.8726 H   0  0  0  0  0  0  0  0  0  0  0  0
   -0.5289    1.8773    0.9072 H   0  0  0  0  0  0  0  0  0  0  0  0
    0.5293   -0.3651    0.8851 H   0  0  0  0  0  0  0  0  0  0  0  0
   -1.0205   -0.3814    0.0098 H   0  0  0  0  0  0  0  0  0  0  0  0
    0.1910   -0.1364   -2.1398 H   0  0  0  0  0  0  0  0  0  0  0  0
    1.7408   -0.1202   -1.2645 H   0  0  0  0  0  0  0  0  0  0  0  0
   -0.5568   -2.5566   -4.4616 H   0  0  0  0  0  0  0  0  0  0  0  0
   -1.3565   -4.0480   -3.9099 H   0  0  0  0  0  0  0  0  0  0  0  0
   -2.3337   -2.6598   -4.4448 H   0  0  0  0  0  0  0  0  0  0  0  0
   -4.8588   -4.3809   -1.4574 H   0  0  0  0  0  0  0  0  0  0  0  0
   -4.9348   -2.9089   -0.4596 H   0  0  0  0  0  0  0  0  0  0  0  0
   -5.8986   -3.0234   -1.9517 H   0  0  0  0  0  0  0  0  0  0  0  0
  1  2  1  0  0  0  0
  1 17  1  0  0  0  0
  1 18  1  0  0  0  0
  1 19  1  0  0  0  0
  2  3  1  0  0  0  0
  2 20  1  0  0  0  0
  2 21  1  0  0  0  0
  3 22  1  0  0  0  0
  3 23  1  0  0  0  0
  3  4  1  0  0  0  0
  4  8  1  0  0  0  0
  4  5  2  0  0  0  0
  5  6  1  0  0  0  0
  6  7  2  0  0  0  0
  7 16  1  0  0  0  0
  7  8  1  0  0  0  0
  8  9  1  0  0  0  0
  9 10  1  6  0  0  0
  9 11  1  0  0  0  0
  9 12  1  0  0  0  0
 11 24  1  0  0  0  0
 11 25  1  0  0  0  0
 11 26  1  0  0  0  0
 12 13  2  0  0  0  0
 12 14  1  0  0  0  0
 14 15  1  0  0  0  0
 15 27  1  0  0  0  0
 15 28  1  0  0  0  0
 15 29  1  0  0  0  0
M  END
$$$$
ZINC66509126
 OpenBabel01252620473D

 45 47  0  0  0  0  0  0  0  0999 V2000
   -2.5666   -1.2919  -11.0325 C   0  0  0  0  0  0  0  0  0  0  0  0
   -1.3990   -0.5411  -10.6934 O   0  0  0  0  0  0  0  0  0  0  0  0
   -0.6060   -1.0436   -9.7098 C   0  0  0  0  0  0  0  0  0  0  0  0
   -0.9437   -2.2376   -9.0893 C   0  0  0  0  0  0  0  0  0  0  0  0
   -0.1388   -2.7488   -8.0906 C   0  0  0  0  0  0  0  0  0  0  0  0
    1.0090   -2.0674   -7.7074 C   0  0  0  0  0  0  0  0  0  0  0  0
    1.3464   -0.8723   -8.3290 C   0  0  0  0  0  0  0  0  0  0  0  0
    0.5432   -0.3651   -9.3312 C   0  0  0  0  0  0  0  0  0  0  0  0
    1.8255   -2.5849   -6.6945 N   0  0  0  0  0  0  0  0  0  0  0  0
    1.9908   -3.9328   -6.5741 C   0  0  0  0  0  0  0  0  0  0  0  0
    1.4504   -4.7621   -7.4883 O   0  5  0  0  0  0  0  0  0  0  0  0
    2.7184   -4.4527   -5.5058 C   0  0  0  0  0  0  0  0  0  0  0  0
    3.2927   -3.5713   -4.5342 C   0  0  0  0  0  0  0  0  0  0  0  0
    3.7483   -2.8721   -3.7635 N   0  0  0  0  0  0  0  0  0  0  0  0
    2.8958   -5.8992   -5.3766 C   0  0  0  0  0  0  0  0  0  0  0  0
    2.3682   -6.5534   -4.3165 O   0  5  0  0  0  0  0  0  0  0  0  0
    3.6007   -6.5956   -6.3352 C   0  0  0  0  0  0  0  0  0  0  0  0
    3.7478   -8.1003   -6.4205 C   0  0  0  0  0  0  0  0  0  0  0  0
    4.6249   -8.3118   -7.6684 C   0  0  0  0  0  0  0  0  0  0  0  0
    4.8975   -6.9626   -8.1758 N   0  0  0  0  0  0  0  0  0  0  0  0
    4.3044   -6.0411   -7.4083 C   0  0  0  0  0  0  0  0  0  0  0  0
    4.3737   -4.8424   -7.6204 O   0  0  0  0  0  0  0  0  0  0  0  0
    5.6673   -6.6788   -9.3096 C   0  0  0  0  0  0  0  0  0  0  0  0
    5.9633   -5.3622   -9.6374 C   0  0  0  0  0  0  0  0  0  0  0  0
    6.7232   -5.0843  -10.7567 C   0  0  0  0  0  0  0  0  0  0  0  0
    7.1894   -6.1174  -11.5522 C   0  0  0  0  0  0  0  0  0  0  0  0
    6.8955   -7.4310  -11.2271 C   0  0  0  0  0  0  0  0  0  0  0  0
    6.1411   -7.7136  -10.1053 C   0  0  0  0  0  0  0  0  0  0  0  0
    7.9318   -5.8434  -12.6471 F   0  0  0  0  0  0  0  0  0  0  0  0
   -2.2740   -2.2857  -11.3713 H   0  0  0  0  0  0  0  0  0  0  0  0
   -3.2084   -1.3811  -10.1560 H   0  0  0  0  0  0  0  0  0  0  0  0
   -3.1082   -0.7814  -11.8288 H   0  0  0  0  0  0  0  0  0  0  0  0
   -1.8366   -2.7672   -9.3871 H   0  0  0  0  0  0  0  0  0  0  0  0
   -0.4020   -3.6781   -7.6073 H   0  0  0  0  0  0  0  0  0  0  0  0
    2.2387   -0.3416   -8.0314 H   0  0  0  0  0  0  0  0  0  0  0  0
    0.8077    0.5621   -9.8178 H   0  0  0  0  0  0  0  0  0  0  0  0
    2.2735   -1.9843   -6.0785 H   0  0  0  0  0  0  0  0  0  0  0  0
    4.2464   -8.4873   -5.5318 H   0  0  0  0  0  0  0  0  0  0  0  0
    2.7747   -8.5734   -6.5516 H   0  0  0  0  0  0  0  0  0  0  0  0
    5.5558   -8.8095   -7.3970 H   0  0  0  0  0  0  0  0  0  0  0  0
    4.0864   -8.8954   -8.4151 H   0  0  0  0  0  0  0  0  0  0  0  0
    5.5993   -4.5561   -9.0176 H   0  0  0  0  0  0  0  0  0  0  0  0
    6.9535   -4.0605  -11.0120 H   0  0  0  0  0  0  0  0  0  0  0  0
    7.2598   -8.2353  -11.8491 H   0  0  0  0  0  0  0  0  0  0  0  0
    5.9162   -8.7385   -9.8494 H   0  0  0  0  0  0  0  0  0  0  0  0
  1  2  1  0  0  0  0
  1 30  1  0  0  0  0
  1 31  1  0  0  0  0
  1 32  1  0  0  0  0
  2  3  1  0  0  0  0
  3  8  2  0  0  0  0
  3  4  1  0  0  0  0
  4  5  2  0  0  0  0
  4 33  1  0  0  0  0
  5  6  1  0  0  0  0
  5 34  1  0  0  0  0
  6  7  2  0  0  0  0
  6  9  1  0  0  0  0
  7  8  1  0  0  0  0
  7 35  1  0  0  0  0
  8 36  1  0  0  0  0
  9 10  1  0  0  0  0
  9 37  1  0  0  0  0
 10 11  1  0  0  0  0
 10 12  2  0  0  0  0
 12 13  1  0  0  0  0
 12 15  1  0  0  0  0
 13 14  3  0  0  0  0
 15 16  1  0  0  0  0
 15 17  2  0  0  0  0
 17 21  1  0  0  0  0
 17 18  1  0  0  0  0
 18 19  1  0  0  0  0
 18 38  1  0  0  0  0
 18 39  1  0  0  0  0
 19 20  1  0  0  0  0
 19 40  1  0  0  0  0
 19 41  1  0  0  0  0
 20 21  1  0  0  0  0
 20 23  1  0  0  0  0
 21 22  2  0  0  0  0
 23 28  2  0  0  0  0
 23 24  1  0  0  0  0
 24 25  2  0  0  0  0
 24 42  1  0  0  0  0
 25 26  1  0  0  0  0
 25 43  1  0  0  0  0
 26 27  2  0  0  0  0
 26 29  1  0  0  0  0
 27 28  1  0  0  0  0
 27 44  1  0  0  0  0
 28 45  1  0  0  0  0
M  CHG  2  11  -1  16  -1
M  END
$$$$
ZINC13079351
 OpenBabel01252620473D

 50 53  0  0  0  0  0  0  0  0999 V2000
   -0.3599    2.7788    1.8186 C   0  0  0  0  0  0  0  0  0  0  0  0
   -1.0096    3.2265    2.9537 C   0  0  0  0  0  0  0  0  0  0  0  0
   -2.0119    2.4633    3.5227 C   0  0  0  0  0  0  0  0  0  0  0  0
   -2.3665    1.2538    2.9550 C   0  0  0  0  0  0  0  0  0  0  0  0
   -1.7194    0.8079    1.8177 C   0  0  0  0  0  0  0  0  0  0  0  0
   -0.7181    1.5718    1.2479 C   0  0  0  0  0  0  0  0  0  0  0  0
   -0.0127    1.0858    0.0080 C   0  0  0  0  0  0  0  0  0  0  0  0
   -0.7527    1.5927   -1.2315 C   0  0  0  0  0  0  0  0  0  0  0  0
   -0.0473    1.1066   -2.4714 C   0  0  0  0  0  0  0  0  0  0  0  0
    0.9454    0.4249   -2.3737 O   0  0  0  0  0  0  0  0  0  0  0  0
   -2.8371    3.0318    4.9721 S   0  0  0  0  0  0  0  0  0  0  0  0
   -2.6951    4.4455    4.9920 O   0  0  0  0  0  0  0  0  0  0  0  0
   -4.1063    2.3932    4.9937 O   0  0  0  0  0  0  0  0  0  0  0  0
   -1.9938    2.4530    6.2745 N   0  0  0  0  0  0  0  0  0  0  0  0
   -0.6832    2.8852    6.5077 C   0  0  0  0  0  0  0  0  0  0  0  0
   -0.3583    4.2364    6.4109 C   0  0  0  0  0  0  0  0  0  0  0  0
    0.9178    4.6818    6.6349 C   0  0  0  0  0  0  0  0  0  0  0  0
    1.9516    3.7789    6.9735 C   0  0  0  0  0  0  0  0  0  0  0  0
    1.5888    2.4163    7.0635 C   0  0  0  0  0  0  0  0  0  0  0  0
    0.3086    1.9731    6.8443 C   0  0  0  0  0  0  0  0  0  0  0  0
    3.1283    1.6419    7.4963 S   0  0  0  0  0  0  0  0  0  0  0  0
    4.1250    3.1249    7.5299 C   0  0  0  0  0  0  0  0  0  0  0  0
    3.2521    4.0562    7.2234 N   0  0  0  0  0  0  0  0  0  0  0  0
    5.4713    3.2573    7.8074 N   0  0  0  0  0  0  0  0  0  0  0  0
    5.7954    2.6942    9.1261 C   0  0  0  0  0  0  0  0  0  0  0  0
    7.3030    2.8078    9.3671 C   0  0  0  0  0  0  0  0  0  0  0  0
    7.6972    4.1777    9.2516 O   0  0  0  0  0  0  0  0  0  0  0  0
    7.3971    4.7579    7.9794 C   0  0  0  0  0  0  0  0  0  0  0  0
    5.8904    4.6640    7.7243 C   0  0  0  0  0  0  0  0  0  0  0  0
    0.4254    3.3735    1.3759 H   0  0  0  0  0  0  0  0  0  0  0  0
   -0.7323    4.1712    3.3975 H   0  0  0  0  0  0  0  0  0  0  0  0
   -3.1493    0.6573    3.3998 H   0  0  0  0  0  0  0  0  0  0  0  0
   -1.9965   -0.1370    1.3742 H   0  0  0  0  0  0  0  0  0  0  0  0
    0.0021   -0.0041    0.0020 H   0  0  0  0  0  0  0  0  0  0  0  0
    1.0099    1.4631    0.0003 H   0  0  0  0  0  0  0  0  0  0  0  0
   -1.7753    1.2154   -1.2238 H   0  0  0  0  0  0  0  0  0  0  0  0
   -0.7675    2.6825   -1.2255 H   0  0  0  0  0  0  0  0  0  0  0  0
   -2.4082    1.8145    6.8757 H   0  0  0  0  0  0  0  0  0  0  0  0
   -1.1288    4.9480    6.1533 H   0  0  0  0  0  0  0  0  0  0  0  0
    1.1367    5.7361    6.5521 H   0  0  0  0  0  0  0  0  0  0  0  0
    0.0749    0.9221    6.9286 H   0  0  0  0  0  0  0  0  0  0  0  0
    5.2606    3.2462    9.8990 H   0  0  0  0  0  0  0  0  0  0  0  0
    5.4999    1.6454    9.1566 H   0  0  0  0  0  0  0  0  0  0  0  0
    7.8359    2.2120    8.6261 H   0  0  0  0  0  0  0  0  0  0  0  0
    7.5410    2.4436   10.3665 H   0  0  0  0  0  0  0  0  0  0  0  0
    7.9328    4.2188    7.1980 H   0  0  0  0  0  0  0  0  0  0  0  0
    7.7026    5.8042    7.9746 H   0  0  0  0  0  0  0  0  0  0  0  0
    5.6644    5.0532    6.7316 H   0  0  0  0  0  0  0  0  0  0  0  0
    5.3566    5.2477    8.4743 H   0  0  0  0  0  0  0  0  0  0  0  0
   -0.5219    1.4312   -3.6843 O   0  0  0  0  0  1  0  0  0  0  0  0
  1  6  2  0  0  0  0
  1  2  1  0  0  0  0
  1 30  1  0  0  0  0
  2  3  2  0  0  0  0
  2 31  1  0  0  0  0
  3  4  1  0  0  0  0
  3 11  1  0  0  0  0
  4  5  2  0  0  0  0
  4 32  1  0  0  0  0
  5  6  1  0  0  0  0
  5 33  1  0  0  0  0
  6  7  1  0  0  0  0
  7  8  1  0  0  0  0
  7 34  1  0  0  0  0
  7 35  1  0  0  0  0
  8  9  1  0  0  0  0
  8 36  1  0  0  0  0
  8 37  1  0  0  0  0
  9 10  2  0  0  0  0
  9 50  1  0  0  0  0
 11 12  2  0  0  0  0
 11 13  2  0  0  0  0
 11 14  1  0  0  0  0
 14 15  1  0  0  0  0
 14 38  1  0  0  0  0
 15 20  2  0  0  0  0
 15 16  1  0  0  0  0
 16 17  2  0  0  0  0
 16 39  1  0  0  0  0
 17 18  1  0  0  0  0
 17 40  1  0  0  0  0
 18 23  1  0  0  0  0
 18 19  2  0  0  0  0
 19 20  1  0  0  0  0
 19 21  1  0  0  0  0
 20 41  1  0  0  0  0
 21 22  1  0  0  0  0
 22 23  2  0  0  0  0
 22 24  1  0  0  0  0
 24 29  1  0  0  0  0
 24 25  1  0  0  0  0
 25 26  1  0  0  0  0
 25 42  1  0  0  0  0
 25 43  1  0  0  0  0
 26 27  1  0  0  0  0
 26 44  1  0  0  0  0
 26 45  1  0  0  0  0
 27 28  1  0  0  0  0
 28 29  1  0  0  0  0
 28 46  1  0  0  0  0
 28 47  1  0  0  0  0
 29 48  1  0  0  0  0
 29 49  1  0  0  0  0
M  END
$$$$
ZINC49045454
 OpenBabel01252620473D

 29 30  0  0  1  0  0  0  0  0999 V2000
   -0.0187    1.5258    0.0104 C   0  0  0  0  0  0  0  0  0  0  0  0
    0.0021   -0.0041    0.0020 C   0  0  2  0  0  0  0  0  0  0  0  0
    0.5123   -0.3556   -0.8948 H   0  0  0  0  0  0  0  0  0  0  0  0
   -1.4117   -0.5257    0.0127 C   0  0  0  0  0  0  0  0  0  0  0  0
   -2.0255   -0.6447   -1.0340 O   0  0  0  0  0  0  0  0  0  0  0  0
   -1.9418   -0.8287    1.0681 O   0  0  0  0  0  1  0  0  0  0  0  0
    0.8794   -0.6050    1.4716 S   0  0  0  0  0  0  0  0  0  0  0  0
    0.2629   -0.1027    2.6492 O   0  0  0  0  0  0  0  0  0  0  0  0
    1.1657   -1.9905    1.3383 O   0  0  0  0  0  0  0  0  0  0  0  0
    2.3579    0.1390    1.4185 N   0  0  0  0  0  2  0  0  0  0  0  0
    3.2973   -0.1058    2.4180 C   0  0  0  0  0  0  0  0  0  0  0  0
    3.0031   -0.9748    3.4560 C   0  0  0  0  0  0  0  0  0  0  0  0
    3.9323   -1.2237    4.4544 C   0  0  0  0  0  0  0  0  0  0  0  0
    5.1680   -0.6125    4.4368 C   0  0  0  0  0  0  0  0  0  0  0  0
    5.4892    0.2662    3.4037 C   0  0  0  0  0  0  0  0  0  0  0  0
    4.5505    0.5205    2.3792 C   0  0  0  0  0  0  0  0  0  0  0  0
    4.9191    1.4442    1.3037 C   0  0  0  0  0  0  0  0  0  0  0  0
    4.0370    1.7143    0.3082 O   0  5  0  0  0  0  0  0  0  0  0  0
    6.0958    2.0074    1.3039 N   0  0  0  0  0  0  0  0  0  0  0  0
    7.0429    1.7686    2.3001 N   0  0  0  0  0  0  0  0  0  0  0  0
    7.9027    2.2150    2.2504 H   0  0  0  0  0  0  0  0  0  0  0  0
    6.7907    0.9439    3.3376 C   0  0  0  0  0  0  0  0  0  0  0  0
    7.6338    0.7522    4.1962 O   0  0  0  0  0  0  0  0  0  0  0  0
    1.0039    1.9031    0.0027 H   0  0  0  0  0  0  0  0  0  0  0  0
   -0.5459    1.8868   -0.8726 H   0  0  0  0  0  0  0  0  0  0  0  0
   -0.5289    1.8773    0.9072 H   0  0  0  0  0  0  0  0  0  0  0  0
    2.0402   -1.4629    3.4880 H   0  0  0  0  0  0  0  0  0  0  0  0
    3.6851   -1.9043    5.2557 H   0  0  0  0  0  0  0  0  0  0  0  0
    5.8837   -0.8134    5.2202 H   0  0  0  0  0  0  0  0  0  0  0  0
  1  2  1  0  0  0  0
  1 24  1  0  0  0  0
  1 25  1  0  0  0  0
  1 26  1  0  0  0  0
  2  3  1  6  0  0  0
  2  4  1  0  0  0  0
  2  7  1  0  0  0  0
  4  5  2  0  0  0  0
  4  6  1  0  0  0  0
  7  8  2  0  0  0  0
  7  9  2  0  0  0  0
  7 10  1  0  0  0  0
 10 11  1  0  0  0  0
 11 16  2  0  0  0  0
 11 12  1  0  0  0  0
 12 13  2  0  0  0  0
 12 27  1  0  0  0  0
 13 14  1  0  0  0  0
 13 28  1  0  0  0  0
 14 15  2  0  0  0  0
 14 29  1  0  0  0  0
 15 22  1  0  0  0  0
 15 16  1  0  0  0  0
 16 17  1  0  0  0  0
 17 18  1  0  0  0  0
 17 19  2  0  0  0  0
 19 20  1  0  0  0  0
 20 21  1  0  0  0  0
 20 22  1  0  0  0  0
 22 23  2  0  0  0  0
M  CHG  1  18  -1
M  END
$$$$
ZINC12493232
 OpenBabel01252620473D

 48 50  0  0  0  0  0  0  0  0999 V2000
   11.3816    1.0672    2.4699 C   0  0  0  0  0  0  0  0  0  0  0  0
    9.9535    1.6141    2.4214 C   0  0  0  0  0  0  0  0  0  0  0  0
    9.8167    2.5103    1.2872 O   0  0  0  0  0  0  0  0  0  0  0  0
    8.6151    3.0789    1.1013 C   0  0  0  0  0  0  0  0  0  0  0  0
    7.7077    2.8358    1.8611 O   0  0  0  0  0  0  0  0  0  0  0  0
    8.3979    4.0204   -0.0552 C   0  0  0  0  0  0  0  0  0  0  0  0
    6.9751    4.5167   -0.0384 C   0  0  0  0  0  0  0  0  0  0  0  0
    6.7040    5.8447   -0.0282 C   0  0  0  0  0  0  0  0  0  0  0  0
    4.9174    5.8188   -0.0115 S   0  0  0  0  0  0  0  0  0  0  0  0
    4.7164    4.0940   -0.0196 C   0  0  0  0  0  0  0  0  0  0  0  0
    5.9650    3.6690   -0.0280 N   0  0  0  0  0  0  0  0  0  0  0  0
    3.5420    3.3522   -0.0128 N   0  0  0  0  0  0  0  0  0  0  0  0
    2.3490    3.9791    0.0015 C   0  0  0  0  0  0  0  0  0  0  0  0
    2.3007    5.1943    0.0086 O   0  5  0  0  0  0  0  0  0  0  0  0
    1.1027    3.1919    0.0087 C   0  0  0  0  0  0  0  0  0  0  0  0
    1.1525    1.7767    0.0006 C   0  0  0  0  0  0  0  0  0  0  0  0
   -0.0126    1.0758    0.0080 C   0  0  0  0  0  0  0  0  0  0  0  0
   -1.2380    1.7683    0.0175 C   0  0  0  0  0  0  0  0  0  0  0  0
   -2.2858    1.1441    0.0190 O   0  0  0  0  0  0  0  0  0  0  0  0
   -1.2623    3.1134    0.0305 N   0  0  0  0  0  0  0  0  0  0  0  0
   -0.1219    3.8284    0.0239 C   0  0  0  0  0  0  0  0  0  0  0  0
   -2.5504    3.8111    0.0466 C   0  0  0  0  0  0  0  0  0  0  0  0
   -3.0055    4.0585   -1.3686 C   0  0  0  0  0  0  0  0  0  0  0  0
   -2.6487    5.2271   -2.0150 C   0  0  0  0  0  0  0  0  0  0  0  0
   -3.0625    5.4521   -3.3147 C   0  0  0  0  0  0  0  0  0  0  0  0
   -3.8405    4.5125   -3.9648 C   0  0  0  0  0  0  0  0  0  0  0  0
   -4.2016    3.3462   -3.3165 C   0  0  0  0  0  0  0  0  0  0  0  0
   -3.7843    3.1193   -2.0184 C   0  0  0  0  0  0  0  0  0  0  0  0
   -4.2866    4.7550   -5.3552 N   0  0  0  0  0  4  0  0  0  0  0  0
   -4.9718    3.9269   -5.9281 O   0  0  0  0  0  0  0  0  0  0  0  0
   -3.9684    5.7826   -5.9263 O   0  5  0  0  0  0  0  0  0  0  0  0
   11.4852    0.3883    3.3291 H   0  0  0  0  0  0  0  0  0  0  0  0
   12.0905    1.9018    2.5744 H   0  0  0  0  0  0  0  0  0  0  0  0
   11.5958    0.5184    1.5410 H   0  0  0  0  0  0  0  0  0  0  0  0
    9.2446    0.7795    2.3169 H   0  0  0  0  0  0  0  0  0  0  0  0
    9.7393    2.1629    3.3503 H   0  0  0  0  0  0  0  0  0  0  0  0
    9.0853    4.8746    0.0333 H   0  0  0  0  0  0  0  0  0  0  0  0
    8.5905    3.4911   -1.0001 H   0  0  0  0  0  0  0  0  0  0  0  0
    7.3810    6.6862   -0.0300 H   0  0  0  0  0  0  0  0  0  0  0  0
    2.1018    1.2618   -0.0109 H   0  0  0  0  0  0  0  0  0  0  0  0
    0.0021   -0.0041    0.0020 H   0  0  0  0  0  0  0  0  0  0  0  0
   -0.1654    4.9075    0.0301 H   0  0  0  0  0  0  0  0  0  0  0  0
   -3.2957    3.1930    0.5686 H   0  0  0  0  0  0  0  0  0  0  0  0
   -2.4402    4.7725    0.5697 H   0  0  0  0  0  0  0  0  0  0  0  0
   -2.0439    5.9629   -1.5059 H   0  0  0  0  0  0  0  0  0  0  0  0
   -2.7800    6.3631   -3.8213 H   0  0  0  0  0  0  0  0  0  0  0  0
   -4.8095    2.6121   -3.8244 H   0  0  0  0  0  0  0  0  0  0  0  0
   -4.0664    2.2081   -1.5119 H   0  0  0  0  0  0  0  0  0  0  0  0
  1  2  1  0  0  0  0
  1 32  1  0  0  0  0
  1 33  1  0  0  0  0
  1 34  1  0  0  0  0
  2  3  1  0  0  0  0
  2 35  1  0  0  0  0
  2 36  1  0  0  0  0
  3  4  1  0  0  0  0
  4  5  2  0  0  0  0
  4  6  1  0  0  0  0
  6  7  1  0  0  0  0
  6 37  1  0  0  0  0
  6 38  1  0  0  0  0
  7 11  1  0  0  0  0
  7  8  2  0  0  0  0
  8  9  1  0  0  0  0
  8 39  1  0  0  0  0
  9 10  1  0  0  0  0
 10 11  2  0  0  0  0
 10 12  1  0  0  0  0
 12 13  2  0  0  0  0
 13 14  1  0  0  0  0
 13 15  1  0  0  0  0
 15 21  2  0  0  0  0
 15 16  1  0  0  0  0
 16 17  2  0  0  0  0
 16 40  1  0  0  0  0
 17 18  1  0  0  0  0
 17 41  1  0  0  0  0
 18 19  2  0  0  0  0
 18 20  1  0  0  0  0
 20 21  1  0  0  0  0
 20 22  1  0  0  0  0
 21 42  1  0  0  0  0
 22 23  1  0  0  0  0
 22 43  1  0  0  0  0
 22 44  1  0  0  0  0
 23 28  2  0  0  0  0
 23 24  1  0  0  0  0
 24 25  2  0  0  0  0
 24 45  1  0  0  0  0
 25 26  1  0  0  0  0
 25 46  1  0  0  0  0
 26 27  2  0  0  0  0
 26 29  1  0  0  0  0
 27 28  1  0  0  0  0
 27 47  1  0  0  0  0
 28 48  1  0  0  0  0
 29 30  2  0  0  0  0
 29 31  1  0  0  0  0
M  CHG  2  14  -1  31  -1
M  END
$$$$
ZINC40027101
 OpenBabel01252620473D

 51 53  0  0  1  0  0  0  0  0999 V2000
    7.5193   -2.3748   -0.7987 C   0  0  0  0  0  0  0  0  0  0  0  0
    6.2686   -3.2476   -0.6760 C   0  0  0  0  0  0  0  0  0  0  0  0
    5.7318   -3.1280    0.6430 O   0  0  0  0  0  0  0  0  0  0  0  0
    4.6127   -3.8437    0.9198 C   0  0  0  0  0  0  0  0  0  0  0  0
    4.0458   -4.6511   -0.0604 C   0  0  0  0  0  0  0  0  0  0  0  0
    2.9110   -5.3791    0.2165 C   0  0  0  0  0  0  0  0  0  0  0  0
    2.3280   -5.3060    1.4855 C   0  0  0  0  0  0  0  0  0  0  0  0
    2.9011   -4.4931    2.4680 C   0  0  0  0  0  0  0  0  0  0  0  0
    4.0394   -3.7723    2.1844 C   0  0  0  0  0  0  0  0  0  0  0  0
    4.6613   -2.9001    3.2444 C   0  0  0  0  0  0  0  0  0  0  0  0
    1.1106   -6.0846    1.7867 C   0  0  0  0  0  0  0  0  0  0  0  0
    0.6395   -6.0675    2.9087 O   0  0  0  0  0  0  0  0  0  0  0  0
    0.4690   -6.8786    0.7340 C   0  0  0  0  0  0  0  0  0  0  0  0
    0.3728   -8.2275    0.6858 C   0  0  0  0  0  0  0  0  0  0  0  0
   -0.3489   -8.6194   -0.5430 C   0  0  0  0  0  0  0  0  0  0  0  0
   -0.5952   -9.7626   -0.8724 O   0  0  0  0  0  0  0  0  0  0  0  0
   -0.6929   -7.5230   -1.2428 N   0  0  0  0  0  0  0  0  0  0  0  0
   -0.2180   -6.3480   -0.5027 C   0  0  1  0  0  0  0  0  0  0  0  0
    0.4892   -5.7849   -1.1118 H   0  0  0  0  0  0  0  0  0  0  0  0
   -1.3807   -5.4717   -0.1139 C   0  0  0  0  0  0  0  0  0  0  0  0
   -2.5245   -6.0383    0.4175 C   0  0  0  0  0  0  0  0  0  0  0  0
   -3.5920   -5.2373    0.7743 C   0  0  0  0  0  0  0  0  0  0  0  0
   -3.5154   -3.8632    0.5994 C   0  0  0  0  0  0  0  0  0  0  0  0
   -2.3664   -3.2970    0.0665 C   0  0  0  0  0  0  0  0  0  0  0  0
   -1.2998   -4.1019   -0.2839 C   0  0  0  0  0  0  0  0  0  0  0  0
   -4.5643   -3.0730    0.9492 O   0  0  0  0  0  0  0  0  0  0  0  0
   -1.4187   -7.5050   -2.5153 C   0  0  0  0  0  0  0  0  0  0  0  0
   -2.9001   -7.4355   -2.2476 C   0  0  0  0  0  0  0  0  0  0  0  0
   -3.6181   -6.4791   -2.7822 C   0  0  0  0  0  0  0  0  0  0  0  0
    0.8601   -9.0819    1.6150 O   0  5  0  0  0  0  0  0  0  0  0  0
    8.2634   -2.7021   -0.0725 H   0  0  0  0  0  0  0  0  0  0  0  0
    7.9287   -2.4660   -1.8047 H   0  0  0  0  0  0  0  0  0  0  0  0
    7.2567   -1.3346   -0.6062 H   0  0  0  0  0  0  0  0  0  0  0  0
    5.5245   -2.9203   -1.4021 H   0  0  0  0  0  0  0  0  0  0  0  0
    6.5312   -4.2878   -0.8685 H   0  0  0  0  0  0  0  0  0  0  0  0
    4.4965   -4.7067   -1.0403 H   0  0  0  0  0  0  0  0  0  0  0  0
    2.4711   -6.0056   -0.5454 H   0  0  0  0  0  0  0  0  0  0  0  0
    2.4538   -4.4336    3.4492 H   0  0  0  0  0  0  0  0  0  0  0  0
    4.2298   -1.9006    3.1917 H   0  0  0  0  0  0  0  0  0  0  0  0
    4.4667   -3.3285    4.2276 H   0  0  0  0  0  0  0  0  0  0  0  0
    5.7373   -2.8405    3.0805 H   0  0  0  0  0  0  0  0  0  0  0  0
   -2.5836   -7.1081    0.5534 H   0  0  0  0  0  0  0  0  0  0  0  0
   -4.4855   -5.6804    1.1886 H   0  0  0  0  0  0  0  0  0  0  0  0
   -2.3044   -2.2276   -0.0707 H   0  0  0  0  0  0  0  0  0  0  0  0
   -0.4034   -3.6613   -0.6947 H   0  0  0  0  0  0  0  0  0  0  0  0
   -4.5329   -2.7596    1.8634 H   0  0  0  0  0  0  0  0  0  0  0  0
   -1.1131   -6.6344   -3.0956 H   0  0  0  0  0  0  0  0  0  0  0  0
   -1.1928   -8.4125   -3.0752 H   0  0  0  0  0  0  0  0  0  0  0  0
   -3.3698   -8.1742   -1.6150 H   0  0  0  0  0  0  0  0  0  0  0  0
   -3.1484   -5.7404   -3.4148 H   0  0  0  0  0  0  0  0  0  0  0  0
   -4.6798   -6.4293   -2.5904 H   0  0  0  0  0  0  0  0  0  0  0  0
  1  2  1  0  0  0  0
  1 31  1  0  0  0  0
  1 32  1  0  0  0  0
  1 33  1  0  0  0  0
  2  3  1  0  0  0  0
  2 34  1  0  0  0  0
  2 35  1  0  0  0  0
  3  4  1  0  0  0  0
  4  9  2  0  0  0  0
  4  5  1  0  0  0  0
  5  6  2  0  0  0  0
  5 36  1  0  0  0  0
  6  7  1  0  0  0  0
  6 37  1  0  0  0  0
  7  8  2  0  0  0  0
  7 11  1  0  0  0  0
  8  9  1  0  0  0  0
  8 38  1  0  0  0  0
  9 10  1  0  0  0  0
 10 39  1  0  0  0  0
 10 40  1  0  0  0  0
 10 41  1  0  0  0  0
 11 12  2  0  0  0  0
 11 13  1  0  0  0  0
 13 18  1  0  0  0  0
 13 14  2  0  0  0  0
 14 15  1  0  0  0  0
 14 30  1  0  0  0  0
 15 16  2  0  0  0  0
 15 17  1  0  0  0  0
 17 18  1  0  0  0  0
 17 27  1  0  0  0  0
 18 19  1  6  0  0  0
 18 20  1  0  0  0  0
 20 25  2  0  0  0  0
 20 21  1  0  0  0  0
 21 22  2  0  0  0  0
 21 42  1  0  0  0  0
 22 23  1  0  0  0  0
 22 43  1  0  0  0  0
 23 24  2  0  0  0  0
 23 26  1  0  0  0  0
 24 25  1  0  0  0  0
 24 44  1  0  0  0  0
 25 45  1  0  0  0  0
 26 46  1  0  0  0  0
 27 28  1  0  0  0  0
 27 47  1  0  0  0  0
 27 48  1  0  0  0  0
 28 29  2  0  0  0  0
 28 49  1  0  0  0  0
 29 50  1  0  0  0  0
 29 51  1  0  0  0  0
M  CHG  1  30  -1
M  END
$$$$
