
 OpenBabel01272601073D

 16 16  0  0  0  0  0  0  0  0999 V2000
   39.3860   12.5390   28.3630 C   0  0  0  0  0  0  0  0  0  0  0  0
   39.5100   12.4780   26.9640 C   0  0  0  0  0  0  0  0  0  0  0  0
   40.6920   12.8780   26.3330 C   0  0  0  0  0  0  0  0  0  0  0  0
   41.7420   13.3490   27.1040 C   0  0  0  0  0  0  0  0  0  0  0  0
   41.6270   13.4310   28.4890 C   0  0  0  0  0  0  0  0  0  0  0  0
   40.4550   13.0350   29.1260 C   0  0  0  0  0  0  0  0  0  0  0  0
   36.9200   12.6320   28.6140 C   0  0  0  0  0  0  0  0  0  0  0  0
   38.1120   12.1330   28.9730 C   0  0  0  0  0  0  0  0  0  0  0  0
   34.7110   11.7500   28.6230 O   0  0  0  0  0  0  0  0  0  0  0  0
   35.6490   12.2320   29.2340 C   0  0  0  0  0  0  0  0  0  0  0  0
   35.5970   12.4400   30.5570 O   0  0  0  0  0  0  0  0  0  0  0  0
   34.7020   12.1280   30.8080 H   0  0  0  0  0  0  0  0  0  0  0  0
   42.8950   13.7410   26.4890 O   0  0  0  0  0  0  0  0  0  0  0  0
   43.4760   14.0330   27.2200 H   0  0  0  0  0  0  0  0  0  0  0  0
   42.7000   13.9180   29.1850 O   0  0  0  0  0  0  0  0  0  0  0  0
   42.4730   13.9250   30.1300 H   0  0  0  0  0  0  0  0  0  0  0  0
  1  8  1  0  0  0  0
  1  6  1  0  0  0  0
  2  1  2  0  0  0  0
  3  2  1  0  0  0  0
  3  4  2  0  0  0  0
  4  5  1  0  0  0  0
  5  6  2  0  0  0  0
  5 15  1  0  0  0  0
  7  8  2  0  0  0  0
  7 10  1  0  0  0  0
  9 10  2  0  0  0  0
 10 11  1  0  0  0  0
 11 12  1  0  0  0  0
 13  4  1  0  0  0  0
 13 14  1  0  0  0  0
 15 16  1  0  0  0  0
M  END
>  <minimizedAffinity>
-5.05520344

>  <CNNscore>
0.847918212

>  <CNNaffinity>
3.89838791

$$$$
