
 OpenBabel01272601073D

 31 32  0  0  1  0  0  0  0  0999 V2000
   34.8420   13.4070   31.1100 C   0  0  1  0  0  0  0  0  0  0  0  0
   33.4360   12.8190   31.2990 C   0  0  0  0  0  0  0  0  0  0  0  0
   32.4700   13.8420   31.9090 C   0  0  1  0  0  0  0  0  0  0  0  0
   33.0140   14.4850   33.1890 C   0  0  0  0  0  0  0  0  0  0  0  0
   34.4170   15.0580   32.9670 C   0  0  2  0  0  0  0  0  0  0  0  0
   35.3740   13.9770   32.4360 C   0  0  1  0  0  0  0  0  0  0  0  0
   32.2990   14.9020   30.9510 O   0  0  0  0  0  0  0  0  0  0  0  0
   31.5590   14.6380   30.3650 H   0  0  0  0  0  0  0  0  0  0  0  0
   31.1120   13.1780   32.1650 C   0  0  0  0  0  0  0  0  0  0  0  0
   30.3790   13.4370   33.1100 O   0  0  0  0  0  0  0  0  0  0  0  0
   30.7380   12.2850   31.2330 O   0  0  0  0  0  0  0  0  0  0  0  0
   29.8620   11.9630   31.5320 H   0  0  0  0  0  0  0  0  0  0  0  0
   34.9220   15.6040   34.1880 O   0  0  0  0  0  0  0  0  0  0  0  0
   34.2540   16.2160   34.5380 H   0  0  0  0  0  0  0  0  0  0  0  0
   35.4800   12.9030   33.3880 O   0  0  0  0  0  0  0  0  0  0  0  0
   36.1180   12.2710   33.0110 H   0  0  0  0  0  0  0  0  0  0  0  0
   35.7530   12.3640   30.6900 O   0  0  0  0  0  0  0  0  0  0  0  0
   35.2610   11.9130   28.4920 O   0  0  0  0  0  0  0  0  0  0  0  0
   36.0190   12.3100   29.3640 C   0  0  0  0  0  0  0  0  0  0  0  0
   37.3780   12.7970   29.0500 C   0  0  0  0  0  0  0  0  0  0  0  0
   38.3050   12.0910   28.3850 C   0  0  0  0  0  0  0  0  0  0  0  0
   39.6480   12.6020   28.0750 C   0  0  0  0  0  0  0  0  0  0  0  0
   40.4440   13.0820   29.1290 C   0  0  0  0  0  0  0  0  0  0  0  0
   41.7180   13.6000   28.8830 C   0  0  0  0  0  0  0  0  0  0  0  0
   42.1870   13.6490   27.5800 C   0  0  0  0  0  0  0  0  0  0  0  0
   41.4040   13.1920   26.5240 C   0  0  0  0  0  0  0  0  0  0  0  0
   40.1350   12.6730   26.7600 C   0  0  0  0  0  0  0  0  0  0  0  0
   43.4310   14.1570   27.3380 O   0  0  0  0  0  0  0  0  0  0  0  0
   43.5390   14.0930   26.3680 H   0  0  0  0  0  0  0  0  0  0  0  0
   41.9270   13.2810   25.2630 O   0  0  0  0  0  0  0  0  0  0  0  0
   41.2700   12.9380   24.6340 H   0  0  0  0  0  0  0  0  0  0  0  0
  1 17  1  1  0  0  0
  1  2  1  0  0  0  0
  1  6  1  0  0  0  0
  2  3  1  0  0  0  0
  3  7  1  6  0  0  0
  3  9  1  0  0  0  0
  3  4  1  0  0  0  0
  5  4  1  0  0  0  0
  5 13  1  1  0  0  0
  6  5  1  0  0  0  0
  6 15  1  1  0  0  0
  8  7  1  0  0  0  0
  9 10  2  0  0  0  0
 11 12  1  0  0  0  0
 11  9  1  0  0  0  0
 13 14  1  0  0  0  0
 16 15  1  0  0  0  0
 18 19  2  0  0  0  0
 19 17  1  0  0  0  0
 20 19  1  0  0  0  0
 21 20  2  0  0  0  0
 22 21  1  0  0  0  0
 22 23  1  0  0  0  0
 24 23  2  0  0  0  0
 25 24  1  0  0  0  0
 26 27  1  0  0  0  0
 26 25  2  0  0  0  0
 27 22  2  0  0  0  0
 28 25  1  0  0  0  0
 29 28  1  0  0  0  0
 30 26  1  0  0  0  0
 31 30  1  0  0  0  0
M  END
>  <minimizedAffinity>
-7.46514082

>  <CNNscore>
0.558927059

>  <CNNaffinity>
3.81661797

$$$$
