
 OpenBabel01272601073D

 16 16  0  0  0  0  0  0  0  0999 V2000
   41.3490   10.0920   29.2570 C   0  0  0  0  0  0  0  0  0  0  0  0
   40.0000   10.4520   29.2220 C   0  0  0  0  0  0  0  0  0  0  0  0
   39.5830   11.5920   28.5100 C   0  0  0  0  0  0  0  0  0  0  0  0
   40.5330   12.3520   27.8120 C   0  0  0  0  0  0  0  0  0  0  0  0
   41.8820   11.9990   27.8430 C   0  0  0  0  0  0  0  0  0  0  0  0
   42.2740   10.8790   28.5620 C   0  0  0  0  0  0  0  0  0  0  0  0
   41.2060    8.5860   31.0910 C   0  0  0  0  0  0  0  0  0  0  0  0
   41.8850    9.0170   29.9170 O   0  0  0  0  0  0  0  0  0  0  0  0
   38.1500   11.9180   28.4770 C   0  0  0  0  0  0  0  0  0  0  0  0
   37.4580   12.3410   29.5460 C   0  0  0  0  0  0  0  0  0  0  0  0
   36.0230   12.6550   29.5150 C   0  0  0  0  0  0  0  0  0  0  0  0
   35.4570   13.3620   30.3300 O   0  0  0  0  0  0  0  0  0  0  0  0
   35.3610   12.0900   28.4930 O   0  0  0  0  0  0  0  0  0  0  0  0
   34.4400   12.3970   28.6170 H   0  0  0  0  0  0  0  0  0  0  0  0
   43.6030   10.5520   28.5760 O   0  0  0  0  0  0  0  0  0  0  0  0
   43.6590    9.7480   29.1270 H   0  0  0  0  0  0  0  0  0  0  0  0
  1  8  1  0  0  0  0
  2  1  1  0  0  0  0
  3  2  2  0  0  0  0
  4  5  2  0  0  0  0
  4  3  1  0  0  0  0
  5  6  1  0  0  0  0
  6 15  1  0  0  0  0
  6  1  2  0  0  0  0
  8  7  1  0  0  0  0
  9  3  1  0  0  0  0
  9 10  2  0  0  0  0
 11 10  1  0  0  0  0
 11 12  2  0  0  0  0
 13 14  1  0  0  0  0
 13 11  1  0  0  0  0
 15 16  1  0  0  0  0
M  END
>  <minimizedAffinity>
-4.27135897

>  <CNNscore>
0.792387843

>  <CNNaffinity>
3.77385306

$$$$
