
 OpenBabel01272601073D

 23 25  0  0  0  0  0  0  0  0999 V2000
   33.9540   11.9730   28.4970 O   0  0  0  0  0  0  0  0  0  0  0  0
   34.9440   12.1570   29.1980 C   0  0  0  0  0  0  0  0  0  0  0  0
   36.2930   12.2260   28.6200 C   0  0  0  0  0  0  0  0  0  0  0  0
   37.3400   12.4220   29.4340 C   0  0  0  0  0  0  0  0  0  0  0  0
   37.2410   12.5830   30.8080 O   0  0  0  0  0  0  0  0  0  0  0  0
   35.9970   12.5200   31.3870 C   0  0  0  0  0  0  0  0  0  0  0  0
   35.9360   12.6750   32.7730 C   0  0  0  0  0  0  0  0  0  0  0  0
   34.6990   12.6210   33.4100 C   0  0  0  0  0  0  0  0  0  0  0  0
   33.5270   12.4160   32.6850 C   0  0  0  0  0  0  0  0  0  0  0  0
   33.5930   12.2630   31.3030 C   0  0  0  0  0  0  0  0  0  0  0  0
   34.8300   12.3150   30.6530 C   0  0  0  0  0  0  0  0  0  0  0  0
   38.7180   12.5100   28.9150 C   0  0  0  0  0  0  0  0  0  0  0  0
   39.0110   12.2590   27.5640 C   0  0  0  0  0  0  0  0  0  0  0  0
   40.3240   12.3350   27.0900 C   0  0  0  0  0  0  0  0  0  0  0  0
   41.3510   12.6580   27.9690 C   0  0  0  0  0  0  0  0  0  0  0  0
   41.0870   12.9020   29.3100 C   0  0  0  0  0  0  0  0  0  0  0  0
   39.7750   12.8240   29.7840 C   0  0  0  0  0  0  0  0  0  0  0  0
   42.6450   12.7450   27.5510 O   0  0  0  0  0  0  0  0  0  0  0  0
   42.6800   12.5520   26.6000 H   0  0  0  0  0  0  0  0  0  0  0  0
   34.5900   12.7660   34.7610 O   0  0  0  0  0  0  0  0  0  0  0  0
   35.4740   12.8970   35.1420 H   0  0  0  0  0  0  0  0  0  0  0  0
   32.4120   12.0640   30.6420 O   0  0  0  0  0  0  0  0  0  0  0  0
   32.6060   11.9740   29.6820 H   0  0  0  0  0  0  0  0  0  0  0  0
  1  2  2  0  0  0  0
  2 11  1  0  0  0  0
  3  2  1  0  0  0  0
  3  4  2  0  0  0  0
  4  5  1  0  0  0  0
  5  6  1  0  0  0  0
  6  7  1  0  0  0  0
  7  8  2  0  0  0  0
  8 20  1  0  0  0  0
  9  8  1  0  0  0  0
 10  9  2  0  0  0  0
 11 10  1  0  0  0  0
 11  6  2  0  0  0  0
 12  4  1  0  0  0  0
 12 17  1  0  0  0  0
 13 12  2  0  0  0  0
 14 13  1  0  0  0  0
 14 15  2  0  0  0  0
 15 16  1  0  0  0  0
 16 17  2  0  0  0  0
 18 15  1  0  0  0  0
 19 18  1  0  0  0  0
 20 21  1  0  0  0  0
 22 10  1  0  0  0  0
 23 22  1  0  0  0  0
M  END
>  <minimizedAffinity>
-5.83717108

>  <CNNscore>
0.794812024

>  <CNNaffinity>
4.11660814

$$$$
