
 OpenBabel01272601143D

 11 11  0  0  0  0  0  0  0  0999 V2000
   40.8590   12.6220   29.3450 C   0  0  0  0  0  0  0  0  0  0  0  0
   41.1540   13.0130   27.9350 C   0  0  0  0  0  0  0  0  0  0  0  0
   42.2550   13.6650   27.5420 C   0  0  0  0  0  0  0  0  0  0  0  0
   42.4600   13.9910   26.2310 N   0  0  0  0  0  0  0  0  0  0  0  0
   41.5810   13.6880   25.2280 C   0  0  0  0  0  0  0  0  0  0  0  0
   41.7970   13.9970   24.0600 O   0  0  0  0  0  0  0  0  0  0  0  0
   40.4530   13.0240   25.6140 N   0  0  0  0  0  0  0  0  0  0  0  0
   40.1530   12.6510   26.8950 C   0  0  0  0  0  0  0  0  0  0  0  0
   39.1190   12.0550   27.1730 O   0  0  0  0  0  0  0  0  0  0  0  0
   43.2980   14.4850   25.9460 H   0  0  0  0  0  0  0  0  0  0  0  0
   39.7890   12.7880   24.8950 H   0  0  0  0  0  0  0  0  0  0  0  0
  2  1  1  0  0  0  0
  3  2  2  0  0  0  0
  4  3  1  0  0  0  0
  5  7  1  0  0  0  0
  5  4  1  0  0  0  0
  6  5  2  0  0  0  0
  7  8  1  0  0  0  0
  8  9  2  0  0  0  0
  8  2  1  0  0  0  0
 10  4  1  0  0  0  0
 11  7  1  0  0  0  0
M  END
>  <minimizedAffinity>
-4.52719593

>  <CNNscore>
0.862404048

>  <CNNaffinity>
3.25192523

$$$$
