
 OpenBabel01272601103D

 14 14  0  0  1  0  0  0  0  0999 V2000
   31.7980   11.8750   29.3280 C   0  0  0  0  0  0  0  0  0  0  0  0
   31.5640   12.7300   28.1170 C   0  0  0  0  0  0  0  0  0  0  0  0
   32.3040   12.5200   26.9470 C   0  0  0  0  0  0  0  0  0  0  0  0
   32.0830   13.3110   25.8150 C   0  0  0  0  0  0  0  0  0  0  0  0
   31.1180   14.3180   25.8360 C   0  0  0  0  0  0  0  0  0  0  0  0
   30.3670   14.5350   26.9880 C   0  0  0  0  0  0  0  0  0  0  0  0
   30.5830   13.7280   28.1070 C   0  0  0  0  0  0  0  0  0  0  0  0
   29.8490   13.9880   29.2680 O   0  0  0  0  0  0  0  0  0  0  0  0
   30.0870   15.2540   29.8060 C   0  0  0  0  0  0  0  0  0  0  0  0
   29.8220   16.3290   29.2850 O   0  0  0  0  0  0  0  0  0  0  0  0
   30.8060   15.0730   31.1520 C   0  0  1  0  0  0  0  0  0  0  0  0
   30.2350   13.8820   31.9070 C   0  0  0  0  0  0  0  0  0  0  0  0
   32.2120   14.8700   31.0370 O   0  0  0  0  0  0  0  0  0  0  0  0
   32.5620   15.5970   30.4920 H   0  0  0  0  0  0  0  0  0  0  0  0
  2  1  1  0  0  0  0
  3  2  2  0  0  0  0
  4  5  2  0  0  0  0
  4  3  1  0  0  0  0
  5  6  1  0  0  0  0
  6  7  2  0  0  0  0
  7  2  1  0  0  0  0
  7  8  1  0  0  0  0
  8  9  1  0  0  0  0
  9 11  1  0  0  0  0
 10  9  2  0  0  0  0
 11 12  1  6  0  0  0
 13 11  1  0  0  0  0
 14 13  1  0  0  0  0
M  END
>  <minimizedAffinity>
-5.55759192

>  <CNNscore>
0.774492443

>  <CNNaffinity>
3.08590508

$$$$
