
 OpenBabel01272601133D

 12 13  0  0  0  0  0  0  0  0999 V2000
   40.5410   13.9440   23.7590 O   0  0  0  0  0  0  0  0  0  0  0  0
   40.8820   13.5360   24.8650 C   0  0  0  0  0  0  0  0  0  0  0  0
   42.3030   13.5340   25.3260 C   0  0  0  0  0  0  0  0  0  0  0  0
   42.4300   14.2760   26.6410 C   0  0  0  0  0  0  0  0  0  0  0  0
   42.3300   13.3250   27.8220 C   0  0  0  0  0  0  0  0  0  0  0  0
   41.0650   12.5260   27.9730 C   0  0  0  0  0  0  0  0  0  0  0  0
   40.9300   11.8190   29.1880 C   0  0  0  0  0  0  0  0  0  0  0  0
   39.8050   11.0370   29.4660 C   0  0  0  0  0  0  0  0  0  0  0  0
   38.7830   10.9410   28.5320 C   0  0  0  0  0  0  0  0  0  0  0  0
   38.8950   11.6210   27.3230 C   0  0  0  0  0  0  0  0  0  0  0  0
   40.0320   12.3950   27.0450 C   0  0  0  0  0  0  0  0  0  0  0  0
   39.9580   13.0120   25.7620 O   0  0  0  0  0  0  0  0  0  0  0  0
  1  2  2  0  0  0  0
  2  3  1  0  0  0  0
  2 12  1  0  0  0  0
  3  4  1  0  0  0  0
  4  5  1  0  0  0  0
  5  6  1  0  0  0  0
  6  7  1  0  0  0  0
  7  8  2  0  0  0  0
  9  8  1  0  0  0  0
 10  9  2  0  0  0  0
 11 10  1  0  0  0  0
 11  6  2  0  0  0  0
 12 11  1  0  0  0  0
M  END
>  <minimizedAffinity>
-4.33571482

>  <CNNscore>
0.833929837

>  <CNNaffinity>
3.33107829

$$$$
