
 OpenBabel01272601143D

 10 10  0  0  0  0  0  0  0  0999 V2000
   38.8660   11.6520   27.5520 C   0  0  0  0  0  0  0  0  0  0  0  0
   40.0760   12.4590   27.5470 N   0  0  0  0  0  0  0  0  0  0  0  0
   40.7490   12.6360   26.3550 C   0  0  0  0  0  0  0  0  0  0  0  0
   41.8500   13.3830   26.2910 C   0  0  0  0  0  0  0  0  0  0  0  0
   42.2190   13.9520   27.5750 C   0  0  0  0  0  0  0  0  0  0  0  0
   41.6400   13.8390   28.7060 N   0  0  0  0  0  0  0  0  0  0  0  0
   40.4960   13.0720   28.7400 C   0  0  0  0  0  0  0  0  0  0  0  0
   39.8690   12.9350   29.7880 O   0  0  0  0  0  0  0  0  0  0  0  0
   43.3330   14.6880   27.4880 O   0  0  0  0  0  0  0  0  0  0  0  0
   43.5180   15.0340   28.3780 H   0  0  0  0  0  0  0  0  0  0  0  0
  2  1  1  0  0  0  0
  2  7  1  0  0  0  0
  3  2  1  0  0  0  0
  4  3  2  0  0  0  0
  4  5  1  0  0  0  0
  5  6  2  0  0  0  0
  6  7  1  0  0  0  0
  7  8  2  0  0  0  0
  9  5  1  0  0  0  0
  9 10  1  0  0  0  0
M  END
>  <minimizedAffinity>
-3.88313985

>  <CNNscore>
0.823307633

>  <CNNaffinity>
3.27494073

$$$$
