
 OpenBabel01272601143D

 12 13  0  0  0  0  0  0  0  0999 V2000
   41.8520   14.3020   23.6920 O   0  0  0  0  0  0  0  0  0  0  0  0
   41.5250   13.7500   24.7270 C   0  0  0  0  0  0  0  0  0  0  0  0
   42.3750   13.3680   25.7760 N   0  0  0  0  0  0  0  0  0  0  0  0
   41.6120   12.7700   26.7730 C   0  0  0  0  0  0  0  0  0  0  0  0
   42.0010   12.2420   27.9810 C   0  0  0  0  0  0  0  0  0  0  0  0
   40.9900   11.7020   28.7830 C   0  0  0  0  0  0  0  0  0  0  0  0
   39.6410   11.7050   28.3600 C   0  0  0  0  0  0  0  0  0  0  0  0
   39.2710   12.2500   27.1260 C   0  0  0  0  0  0  0  0  0  0  0  0
   40.2830   12.7740   26.3560 C   0  0  0  0  0  0  0  0  0  0  0  0
   40.2280   13.3740   25.1030 N   0  0  0  0  0  0  0  0  0  0  0  0
   43.3700   13.5180   25.7740 H   0  0  0  0  0  0  0  0  0  0  0  0
   39.4120   13.5300   24.5340 H   0  0  0  0  0  0  0  0  0  0  0  0
  1  2  2  0  0  0  0
  2 10  1  0  0  0  0
  2  3  1  0  0  0  0
  3  4  1  0  0  0  0
  4  5  1  0  0  0  0
  5  6  2  0  0  0  0
  7  6  1  0  0  0  0
  8  7  2  0  0  0  0
  9  4  2  0  0  0  0
  9  8  1  0  0  0  0
 10  9  1  0  0  0  0
 11  3  1  0  0  0  0
 12 10  1  0  0  0  0
M  END
>  <minimizedAffinity>
-5.13947582

>  <CNNscore>
0.880541623

>  <CNNaffinity>
3.41033268

$$$$
