
 OpenBabel01272601133D

 11 12  0  0  0  0  0  0  0  0999 V2000
   38.5610   11.5700   31.0490 O   0  0  0  0  0  0  0  0  0  0  0  0
   38.9670   12.0030   29.9750 C   0  0  0  0  0  0  0  0  0  0  0  0
   38.1100   12.0410   28.7400 C   0  0  0  0  0  0  0  0  0  0  0  0
   38.9030   11.6430   27.5110 C   0  0  0  0  0  0  0  0  0  0  0  0
   40.1210   12.5050   27.4150 C   0  0  0  0  0  0  0  0  0  0  0  0
   40.6920   12.8510   26.1870 C   0  0  0  0  0  0  0  0  0  0  0  0
   41.8460   13.6380   26.1500 C   0  0  0  0  0  0  0  0  0  0  0  0
   42.4410   14.0720   27.3360 C   0  0  0  0  0  0  0  0  0  0  0  0
   41.8870   13.7200   28.5640 C   0  0  0  0  0  0  0  0  0  0  0  0
   40.7320   12.9410   28.5900 C   0  0  0  0  0  0  0  0  0  0  0  0
   40.2270   12.5780   29.8510 O   0  0  0  0  0  0  0  0  0  0  0  0
  2  1  2  0  0  0  0
  3  2  1  0  0  0  0
  4  3  1  0  0  0  0
  5  4  1  0  0  0  0
  5 10  1  0  0  0  0
  6  5  2  0  0  0  0
  7  6  1  0  0  0  0
  7  8  2  0  0  0  0
  8  9  1  0  0  0  0
  9 10  2  0  0  0  0
 10 11  1  0  0  0  0
 11  2  1  0  0  0  0
M  END
>  <minimizedAffinity>
-4.63456488

>  <CNNscore>
0.834406376

>  <CNNaffinity>
2.99192882

$$$$
