
 OpenBabel01272601113D

 13 14  0  0  0  0  0  0  0  0999 V2000
   40.4950   14.4640   23.2450 O   0  0  0  0  0  0  0  0  0  0  0  0
   40.8220   14.0100   24.3370 C   0  0  0  0  0  0  0  0  0  0  0  0
   42.1000   14.1100   24.7830 N   0  0  0  0  0  0  0  0  0  0  0  0
   42.4890   13.8770   26.1510 C   0  0  0  0  0  0  0  0  0  0  0  0
   41.5430   12.9800   26.8830 C   0  0  0  0  0  0  0  0  0  0  0  0
   41.8810   12.4000   28.1120 C   0  0  0  0  0  0  0  0  0  0  0  0
   40.9470   11.6230   28.7990 C   0  0  0  0  0  0  0  0  0  0  0  0
   39.6700   11.4330   28.2710 C   0  0  0  0  0  0  0  0  0  0  0  0
   39.3230   12.0150   27.0510 C   0  0  0  0  0  0  0  0  0  0  0  0
   40.2640   12.7810   26.3630 C   0  0  0  0  0  0  0  0  0  0  0  0
   39.9340   13.3590   25.1370 N   0  0  0  0  0  0  0  0  0  0  0  0
   42.7040   14.6560   24.1840 H   0  0  0  0  0  0  0  0  0  0  0  0
   39.0080   13.2460   24.7510 H   0  0  0  0  0  0  0  0  0  0  0  0
  1  2  2  0  0  0  0
  2  3  1  0  0  0  0
  2 11  1  0  0  0  0
  3  4  1  0  0  0  0
  4  5  1  0  0  0  0
  5  6  1  0  0  0  0
  6  7  2  0  0  0  0
  8  7  1  0  0  0  0
  9  8  2  0  0  0  0
 10  5  2  0  0  0  0
 10  9  1  0  0  0  0
 11 10  1  0  0  0  0
 12  3  1  0  0  0  0
 13 11  1  0  0  0  0
M  END
>  <minimizedAffinity>
-5.70354605

>  <CNNscore>
0.96235311

>  <CNNaffinity>
4.05182314

$$$$
