
 OpenBabel01272601133D

 11 12  0  0  0  0  0  0  0  0999 V2000
   41.0620   13.9860   24.1630 S   0  0  0  0  0  0  0  0  0  0  0  0
   41.2410   13.5000   25.7440 C   0  0  0  0  0  0  0  0  0  0  0  0
   42.4760   13.7230   26.5640 C   0  0  0  0  0  0  0  0  0  0  0  0
   42.1050   14.0870   27.9910 C   0  0  0  0  0  0  0  0  0  0  0  0
   41.1570   13.0630   28.5310 C   0  0  0  0  0  0  0  0  0  0  0  0
   41.1160   12.7380   29.8900 C   0  0  0  0  0  0  0  0  0  0  0  0
   40.1950   11.7960   30.3560 C   0  0  0  0  0  0  0  0  0  0  0  0
   39.3030   11.1840   29.4740 C   0  0  0  0  0  0  0  0  0  0  0  0
   39.3260   11.5140   28.1200 C   0  0  0  0  0  0  0  0  0  0  0  0
   40.2530   12.4490   27.6640 C   0  0  0  0  0  0  0  0  0  0  0  0
   40.2120   12.7740   26.2950 O   0  0  0  0  0  0  0  0  0  0  0  0
  1  2  2  0  0  0  0
  2 11  1  0  0  0  0
  2  3  1  0  0  0  0
  3  4  1  0  0  0  0
  4  5  1  0  0  0  0
  5  6  1  0  0  0  0
  6  7  2  0  0  0  0
  8  7  1  0  0  0  0
  9  8  2  0  0  0  0
 10  9  1  0  0  0  0
 10  5  2  0  0  0  0
 11 10  1  0  0  0  0
M  END
>  <minimizedAffinity>
-3.8342402

>  <CNNscore>
0.834791064

>  <CNNaffinity>
3.13142586

$$$$
