
 OpenBabel01272601103D

 13 14  0  0  0  0  0  0  0  0999 V2000
   30.4050   13.2510   32.5720 O   0  0  0  0  0  0  0  0  0  0  0  0
   30.4780   13.6120   31.4010 C   0  0  0  0  0  0  0  0  0  0  0  0
   31.0560   12.7920   30.4740 N   0  0  0  0  0  0  0  0  0  0  0  0
   31.1760   13.1250   29.1390 C   0  0  0  0  0  0  0  0  0  0  0  0
   31.7740   12.2490   28.2350 C   0  0  0  0  0  0  0  0  0  0  0  0
   31.8800   12.6170   26.8920 C   0  0  0  0  0  0  0  0  0  0  0  0
   31.3890   13.8520   26.4610 C   0  0  0  0  0  0  0  0  0  0  0  0
   30.7920   14.7210   27.3750 C   0  0  0  0  0  0  0  0  0  0  0  0
   30.6890   14.3470   28.7190 C   0  0  0  0  0  0  0  0  0  0  0  0
   30.0670   15.2310   29.7150 C   0  0  0  0  0  0  0  0  0  0  0  0
   29.6270   16.3220   29.3690 O   0  0  0  0  0  0  0  0  0  0  0  0
   29.9970   14.8150   30.9990 O   0  0  0  0  0  0  0  0  0  0  0  0
   31.3970   11.9080   30.8290 H   0  0  0  0  0  0  0  0  0  0  0  0
  2  1  2  0  0  0  0
  3 13  1  0  0  0  0
  3  2  1  0  0  0  0
  4  3  1  0  0  0  0
  5  4  2  0  0  0  0
  6  5  1  0  0  0  0
  7  6  2  0  0  0  0
  7  8  1  0  0  0  0
  8  9  2  0  0  0  0
  9  4  1  0  0  0  0
  9 10  1  0  0  0  0
 10 12  1  0  0  0  0
 11 10  2  0  0  0  0
 12  2  1  0  0  0  0
M  END
>  <minimizedAffinity>
-5.96196461

>  <CNNscore>
0.719752967

>  <CNNaffinity>
3.09190869

$$$$
