
 OpenBabel01272601103D

 17 17  0  0  1  0  0  0  0  0999 V2000
   38.5280   12.2610   28.4920 C   0  0  0  0  0  0  0  0  0  0  0  0
   39.0440   12.1100   29.7820 C   0  0  0  0  0  0  0  0  0  0  0  0
   38.2460   12.3500   30.9050 C   0  0  0  0  0  0  0  0  0  0  0  0
   36.9090   12.7500   30.7620 C   0  0  0  0  0  0  0  0  0  0  0  0
   36.3970   12.8980   29.4630 C   0  0  0  0  0  0  0  0  0  0  0  0
   37.1950   12.6580   28.3420 C   0  0  0  0  0  0  0  0  0  0  0  0
   35.9810   13.0060   31.9440 C   0  0  2  0  0  0  0  0  0  0  0  0
   35.3560   11.7630   32.5810 C   0  0  0  0  0  0  0  0  0  0  0  0
   34.8730   13.9960   31.5850 C   0  0  0  0  0  0  0  0  0  0  0  0
   35.2130   15.3200   31.5810 N   0  0  0  0  0  0  0  0  0  0  0  0
   33.7380   13.6470   31.2720 O   0  0  0  0  0  0  0  0  0  0  0  0
   35.9720   15.6370   32.1710 H   0  0  0  0  0  0  0  0  0  0  0  0
   34.4410   15.9630   31.4560 H   0  0  0  0  0  0  0  0  0  0  0  0
   39.3930   12.0080   27.2800 C   0  0  0  0  0  0  0  0  0  0  0  0
   41.8550   11.5620   27.7620 C   0  0  0  0  0  0  0  0  0  0  0  0
   40.8070   12.6130   27.3880 C   0  0  0  0  0  0  0  0  0  0  0  0
   41.1900   13.2750   26.0610 C   0  0  0  0  0  0  0  0  0  0  0  0
  1  2  1  0  0  0  0
  2  3  2  0  0  0  0
  4  3  1  0  0  0  0
  4  7  1  0  0  0  0
  5  4  2  0  0  0  0
  6  1  2  0  0  0  0
  6  5  1  0  0  0  0
  7  8  1  6  0  0  0
  9  7  1  0  0  0  0
 10  9  1  0  0  0  0
 10 12  1  0  0  0  0
 11  9  2  0  0  0  0
 13 10  1  0  0  0  0
 14 16  1  0  0  0  0
 14  1  1  0  0  0  0
 16 15  1  0  0  0  0
 17 16  1  0  0  0  0
M  END
>  <minimizedAffinity>
-4.87308741

>  <CNNscore>
0.866822302

>  <CNNaffinity>
4.592628

$$$$
