
 OpenBabel01272601123D

 17 18  0  0  0  0  0  0  0  0999 V2000
   41.8430   12.0700   27.4720 C   0  0  0  0  0  0  0  0  0  0  0  0
   40.4520   12.2280   28.0050 C   0  0  0  0  0  0  0  0  0  0  0  0
   39.3500   11.8170   27.2620 C   0  0  0  0  0  0  0  0  0  0  0  0
   38.0650   11.9450   27.7930 C   0  0  0  0  0  0  0  0  0  0  0  0
   37.8440   12.4750   29.0890 C   0  0  0  0  0  0  0  0  0  0  0  0
   36.5580   12.6260   29.6870 C   0  0  0  0  0  0  0  0  0  0  0  0
   35.3340   12.1920   28.9110 C   0  0  0  0  0  0  0  0  0  0  0  0
   36.4540   13.2070   30.9750 C   0  0  0  0  0  0  0  0  0  0  0  0
   37.6460   13.5610   31.6240 C   0  0  0  0  0  0  0  0  0  0  0  0
   37.6670   14.1650   33.0010 C   0  0  0  0  0  0  0  0  0  0  0  0
   38.8690   13.3990   31.0650 N   0  0  0  0  0  0  0  0  0  0  0  0
   38.9660   12.8800   29.8370 C   0  0  0  0  0  0  0  0  0  0  0  0
   40.2370   12.7430   29.2900 C   0  0  0  0  0  0  0  0  0  0  0  0
   35.1230   13.4180   31.6600 C   0  0  0  0  0  0  0  0  0  0  0  0
   34.5650   14.7350   31.3720 N   0  0  0  0  0  0  0  0  0  0  0  0
   34.4580   14.8400   30.3640 H   0  0  0  0  0  0  0  0  0  0  0  0
   35.2360   15.4510   31.6480 H   0  0  0  0  0  0  0  0  0  0  0  0
  1  2  1  0  0  0  0
  2 13  1  0  0  0  0
  3  4  1  0  0  0  0
  3  2  2  0  0  0  0
  4  5  2  0  0  0  0
  5  6  1  0  0  0  0
  5 12  1  0  0  0  0
  6  8  2  0  0  0  0
  7  6  1  0  0  0  0
  8  9  1  0  0  0  0
  8 14  1  0  0  0  0
  9 10  1  0  0  0  0
 11  9  2  0  0  0  0
 12 11  1  0  0  0  0
 13 12  2  0  0  0  0
 15 17  1  0  0  0  0
 15 14  1  0  0  0  0
 16 15  1  0  0  0  0
M  END
>  <minimizedAffinity>
-4.77807093

>  <CNNscore>
0.875755548

>  <CNNaffinity>
4.37154722

$$$$
