
 OpenBabel01272601093D

 11 11  0  0  0  0  0  0  0  0999 V2000
   40.5910   12.6450   30.0840 C   0  0  0  0  0  0  0  0  0  0  0  0
   40.9360   12.9620   28.6660 C   0  0  0  0  0  0  0  0  0  0  0  0
   42.0470   13.6040   28.2800 C   0  0  0  0  0  0  0  0  0  0  0  0
   42.3030   13.8640   26.9610 N   0  0  0  0  0  0  0  0  0  0  0  0
   41.4590   13.4970   25.9520 C   0  0  0  0  0  0  0  0  0  0  0  0
   41.8040   13.8320   24.3620 S   0  0  0  0  0  0  0  0  0  0  0  0
   40.3200   12.8430   26.3230 N   0  0  0  0  0  0  0  0  0  0  0  0
   39.9750   12.5360   27.6140 C   0  0  0  0  0  0  0  0  0  0  0  0
   38.9340   11.9450   27.8840 O   0  0  0  0  0  0  0  0  0  0  0  0
   43.1540   14.3520   26.6990 H   0  0  0  0  0  0  0  0  0  0  0  0
   39.6720   12.5570   25.6040 H   0  0  0  0  0  0  0  0  0  0  0  0
  2  1  1  0  0  0  0
  3  2  2  0  0  0  0
  4  3  1  0  0  0  0
  5  7  1  0  0  0  0
  5  4  1  0  0  0  0
  6  5  2  0  0  0  0
  7  8  1  0  0  0  0
  8  9  2  0  0  0  0
  8  2  1  0  0  0  0
 10  4  1  0  0  0  0
 11  7  1  0  0  0  0
M  END
>  <minimizedAffinity>
-3.94327927

>  <CNNscore>
0.813012898

>  <CNNaffinity>
3.22308993

$$$$
