
 OpenBabel01272601133D

 16 16  0  0  1  0  0  0  0  0999 V2000
   37.3900   12.5240   29.7170 C   0  0  0  0  0  0  0  0  0  0  0  0
   37.0620   12.6550   31.0720 C   0  0  0  0  0  0  0  0  0  0  0  0
   35.7330   12.5610   31.4940 C   0  0  0  0  0  0  0  0  0  0  0  0
   34.7020   12.3310   30.5730 C   0  0  0  0  0  0  0  0  0  0  0  0
   35.0350   12.2050   29.2160 C   0  0  0  0  0  0  0  0  0  0  0  0
   36.3630   12.3000   28.7940 C   0  0  0  0  0  0  0  0  0  0  0  0
   33.2450   12.2320   31.0050 C   0  0  1  0  0  0  0  0  0  0  0  0
   32.9690   10.8980   31.7090 C   0  0  0  0  0  0  0  0  0  0  0  0
   32.8540   13.4540   31.8680 C   0  0  0  0  0  0  0  0  0  0  0  0
   32.7260   14.6880   31.0930 N   0  0  0  0  0  0  0  0  0  0  0  0
   32.5080   15.4570   31.7270 H   0  0  0  0  0  0  0  0  0  0  0  0
   31.9330   14.6160   30.4580 H   0  0  0  0  0  0  0  0  0  0  0  0
   38.8260   12.6210   29.2630 C   0  0  0  0  0  0  0  0  0  0  0  0
   40.1580   10.5350   28.8230 C   0  0  0  0  0  0  0  0  0  0  0  0
   39.2160   11.5710   28.2030 C   0  0  0  0  0  0  0  0  0  0  0  0
   39.8830   12.2090   26.9830 C   0  0  0  0  0  0  0  0  0  0  0  0
  1  2  1  0  0  0  0
  2  3  2  0  0  0  0
  4  7  1  0  0  0  0
  4  3  1  0  0  0  0
  5  4  2  0  0  0  0
  6  5  1  0  0  0  0
  6  1  2  0  0  0  0
  7  8  1  1  0  0  0
  7  9  1  0  0  0  0
 10 11  1  0  0  0  0
 10  9  1  0  0  0  0
 12 10  1  0  0  0  0
 13  1  1  0  0  0  0
 15 14  1  0  0  0  0
 15 13  1  0  0  0  0
 16 15  1  0  0  0  0
M  END
>  <minimizedAffinity>
-4.16790152

>  <CNNscore>
0.847767949

>  <CNNaffinity>
4.65199661

$$$$
