
 OpenBabel01272601083D

 17 18  0  0  0  0  0  0  0  0999 V2000
   41.9930   11.9990   27.8060 C   0  0  0  0  0  0  0  0  0  0  0  0
   40.5700   12.1720   28.2460 C   0  0  0  0  0  0  0  0  0  0  0  0
   39.5160   11.8670   27.3910 C   0  0  0  0  0  0  0  0  0  0  0  0
   38.1990   12.0030   27.8320 C   0  0  0  0  0  0  0  0  0  0  0  0
   37.8980   12.4360   29.1450 C   0  0  0  0  0  0  0  0  0  0  0  0
   36.5760   12.5840   29.6530 C   0  0  0  0  0  0  0  0  0  0  0  0
   35.3800   12.2350   28.8040 C   0  0  0  0  0  0  0  0  0  0  0  0
   36.4120   13.0860   30.9600 C   0  0  0  0  0  0  0  0  0  0  0  0
   37.5400   13.3480   31.7370 C   0  0  0  0  0  0  0  0  0  0  0  0
   37.4470   13.8570   33.1480 C   0  0  0  0  0  0  0  0  0  0  0  0
   38.7990   13.1680   31.2670 N   0  0  0  0  0  0  0  0  0  0  0  0
   38.9730   12.7400   30.0090 C   0  0  0  0  0  0  0  0  0  0  0  0
   40.2760   12.5940   29.5490 C   0  0  0  0  0  0  0  0  0  0  0  0
   35.0810   13.3430   31.5400 C   0  0  0  0  0  0  0  0  0  0  0  0
   34.4160   12.5730   32.2030 O   0  0  0  0  0  0  0  0  0  0  0  0
   34.6870   14.6060   31.2980 O   0  0  0  0  0  0  0  0  0  0  0  0
   33.8230   14.6840   31.7540 H   0  0  0  0  0  0  0  0  0  0  0  0
  1  2  1  0  0  0  0
  2 13  1  0  0  0  0
  3  4  1  0  0  0  0
  3  2  2  0  0  0  0
  4  5  2  0  0  0  0
  5  6  1  0  0  0  0
  5 12  1  0  0  0  0
  6  8  2  0  0  0  0
  7  6  1  0  0  0  0
  8 14  1  0  0  0  0
  8  9  1  0  0  0  0
  9 10  1  0  0  0  0
 11  9  2  0  0  0  0
 12 11  1  0  0  0  0
 13 12  2  0  0  0  0
 14 15  2  0  0  0  0
 16 14  1  0  0  0  0
 16 17  1  0  0  0  0
M  END
>  <minimizedAffinity>
-4.88018656

>  <CNNscore>
0.848824143

>  <CNNaffinity>
4.45477724

$$$$
