
 OpenBabel01272601123D

 12 12  0  0  0  0  0  0  0  0999 V2000
   40.6680   12.3010   30.1720 C   0  0  0  0  0  0  0  0  0  0  0  0
   40.8780   12.6730   28.7380 C   0  0  0  0  0  0  0  0  0  0  0  0
   41.9180   13.4800   28.4430 N   0  0  0  0  0  0  0  0  0  0  0  0
   42.0680   13.8200   27.1430 C   0  0  0  0  0  0  0  0  0  0  0  0
   41.2180   13.4100   26.1420 C   0  0  0  0  0  0  0  0  0  0  0  0
   40.1920   12.5850   26.5490 C   0  0  0  0  0  0  0  0  0  0  0  0
   39.9930   12.2100   27.8340 N   0  0  0  0  0  0  0  0  0  0  0  0
   41.3610   13.7710   24.7220 C   0  0  0  0  0  0  0  0  0  0  0  0
   42.6090   13.7230   24.1620 N   0  0  0  0  0  0  0  0  0  0  0  0
   40.3950   14.1300   24.0620 O   0  0  0  0  0  0  0  0  0  0  0  0
   43.4660   13.6840   24.6950 H   0  0  0  0  0  0  0  0  0  0  0  0
   42.6780   14.0750   23.2140 H   0  0  0  0  0  0  0  0  0  0  0  0
  2  1  1  0  0  0  0
  3  2  1  0  0  0  0
  4  3  2  0  0  0  0
  5  6  2  0  0  0  0
  5  4  1  0  0  0  0
  6  7  1  0  0  0  0
  7  2  2  0  0  0  0
  8  5  1  0  0  0  0
  9 11  1  0  0  0  0
  9  8  1  0  0  0  0
 10  8  2  0  0  0  0
 12  9  1  0  0  0  0
M  END
>  <minimizedAffinity>
-4.81980371

>  <CNNscore>
0.885631263

>  <CNNaffinity>
3.20650101

$$$$
