
 OpenBabel01272601123D

 11 11  0  0  0  0  0  0  0  0999 V2000
   40.2120   12.8470   30.2100 C   0  0  0  0  0  0  0  0  0  0  0  0
   40.8030   13.0840   28.8890 N   0  0  0  0  0  0  0  0  0  0  0  0
   41.9390   13.8640   28.8260 C   0  0  0  0  0  0  0  0  0  0  0  0
   42.5470   14.1260   27.6710 C   0  0  0  0  0  0  0  0  0  0  0  0
   41.9330   13.5310   26.4730 C   0  0  0  0  0  0  0  0  0  0  0  0
   42.4850   13.7540   25.2420 N   0  0  0  0  0  0  0  0  0  0  0  0
   40.8680   12.7930   26.5130 N   0  0  0  0  0  0  0  0  0  0  0  0
   40.2510   12.5270   27.7160 C   0  0  0  0  0  0  0  0  0  0  0  0
   38.8630   11.5530   27.7200 S   0  0  0  0  0  0  0  0  0  0  0  0
   42.8930   14.6680   25.0880 H   0  0  0  0  0  0  0  0  0  0  0  0
   41.8530   13.4760   24.4970 H   0  0  0  0  0  0  0  0  0  0  0  0
  2  1  1  0  0  0  0
  3  2  1  0  0  0  0
  4  3  2  0  0  0  0
  5  7  2  0  0  0  0
  5  4  1  0  0  0  0
  6  5  1  0  0  0  0
  7  8  1  0  0  0  0
  8  9  2  0  0  0  0
  8  2  1  0  0  0  0
 10  6  1  0  0  0  0
 11  6  1  0  0  0  0
M  END
>  <minimizedAffinity>
-3.96553755

>  <CNNscore>
0.885733604

>  <CNNaffinity>
3.01205516

$$$$
