
 OpenBabel01272601093D

 11 11  0  0  0  0  0  0  0  0999 V2000
   33.9980    7.5960   33.4860 C   0  0  0  0  0  0  0  0  0  0  0  0
   33.1400    6.5270   32.8840 C   0  0  0  0  0  0  0  0  0  0  0  0
   32.2920    5.8700   33.7000 N   0  0  0  0  0  0  0  0  0  0  0  0
   31.5480    4.8900   33.1370 C   0  0  0  0  0  0  0  0  0  0  0  0
   31.6300    4.5440   31.8080 C   0  0  0  0  0  0  0  0  0  0  0  0
   32.5320    5.2690   31.0620 C   0  0  0  0  0  0  0  0  0  0  0  0
   33.3000    6.2580   31.5730 N   0  0  0  0  0  0  0  0  0  0  0  0
   30.8330    3.4860   31.1830 C   0  0  0  0  0  0  0  0  0  0  0  0
   29.6480    3.5540   30.9200 O   0  0  0  0  0  0  0  0  0  0  0  0
   31.5550    2.3850   30.9110 O   0  0  0  0  0  0  0  0  0  0  0  0
   30.9140    1.7650   30.5020 H   0  0  0  0  0  0  0  0  0  0  0  0
  2  1  1  0  0  0  0
  2  3  1  0  0  0  0
  4  3  2  0  0  0  0
  5  4  1  0  0  0  0
  6  7  1  0  0  0  0
  6  5  2  0  0  0  0
  7  2  2  0  0  0  0
  8  5  1  0  0  0  0
  9  8  2  0  0  0  0
 10  8  1  0  0  0  0
 11 10  1  0  0  0  0
M  END
>  <minimizedAffinity>
-4.07313395

>  <CNNscore>
0.942876339

>  <CNNaffinity>
3.33438945

$$$$
