
 OpenBabel01272601113D

 14 15  0  0  0  0  0  0  0  0999 V2000
   41.8040   13.8990   24.0610 O   0  0  0  0  0  0  0  0  0  0  0  0
   41.6130   13.6690   25.2510 C   0  0  0  0  0  0  0  0  0  0  0  0
   42.4780   14.0940   26.2180 N   0  0  0  0  0  0  0  0  0  0  0  0
   42.3510   13.8870   27.5710 C   0  0  0  0  0  0  0  0  0  0  0  0
   43.1740   14.3020   28.3770 O   0  0  0  0  0  0  0  0  0  0  0  0
   41.1580   13.1310   28.0010 C   0  0  0  0  0  0  0  0  0  0  0  0
   40.9200   12.8600   29.3500 C   0  0  0  0  0  0  0  0  0  0  0  0
   39.7800   12.1430   29.7150 C   0  0  0  0  0  0  0  0  0  0  0  0
   38.8860   11.7020   28.7350 C   0  0  0  0  0  0  0  0  0  0  0  0
   39.1260   11.9760   27.3850 C   0  0  0  0  0  0  0  0  0  0  0  0
   40.2660   12.6930   27.0210 C   0  0  0  0  0  0  0  0  0  0  0  0
   40.5180   12.9730   25.6760 N   0  0  0  0  0  0  0  0  0  0  0  0
   43.2880   14.6080   25.9080 H   0  0  0  0  0  0  0  0  0  0  0  0
   39.8820   12.6630   24.9530 H   0  0  0  0  0  0  0  0  0  0  0  0
  1  2  2  0  0  0  0
  2 12  1  0  0  0  0
  2  3  1  0  0  0  0
  3  4  1  0  0  0  0
  4  6  1  0  0  0  0
  4  5  2  0  0  0  0
  6  7  1  0  0  0  0
  7  8  2  0  0  0  0
  9  8  1  0  0  0  0
 10  9  2  0  0  0  0
 11 10  1  0  0  0  0
 11  6  2  0  0  0  0
 12 11  1  0  0  0  0
 13  3  1  0  0  0  0
 14 12  1  0  0  0  0
M  END
>  <minimizedAffinity>
-5.52100039

>  <CNNscore>
0.897229373

>  <CNNaffinity>
3.54999995

$$$$
