
 OpenBabel01272601093D

 17 18  0  0  0  0  0  0  0  0999 V2000
   42.0450   12.0890   27.8850 C   0  0  0  0  0  0  0  0  0  0  0  0
   40.6100   12.1700   28.3120 C   0  0  0  0  0  0  0  0  0  0  0  0
   39.5840   11.8470   27.4290 C   0  0  0  0  0  0  0  0  0  0  0  0
   38.2530   11.9610   27.8360 C   0  0  0  0  0  0  0  0  0  0  0  0
   37.9110   12.4130   29.1330 C   0  0  0  0  0  0  0  0  0  0  0  0
   36.5750   12.5520   29.6010 C   0  0  0  0  0  0  0  0  0  0  0  0
   35.4130   12.2280   28.6950 C   0  0  0  0  0  0  0  0  0  0  0  0
   36.3710   12.9690   30.9310 C   0  0  0  0  0  0  0  0  0  0  0  0
   37.4730   13.2870   31.7250 C   0  0  0  0  0  0  0  0  0  0  0  0
   37.3330   13.7670   33.1420 C   0  0  0  0  0  0  0  0  0  0  0  0
   38.7460   13.1780   31.2730 N   0  0  0  0  0  0  0  0  0  0  0  0
   38.9600   12.7460   30.0200 C   0  0  0  0  0  0  0  0  0  0  0  0
   40.2760   12.6260   29.5930 C   0  0  0  0  0  0  0  0  0  0  0  0
   35.0280   13.0810   31.4960 C   0  0  0  0  0  0  0  0  0  0  0  0
   34.1160   11.9520   32.2840 S   0  0  0  0  0  0  0  0  0  0  0  0
   34.5060   14.3040   31.3090 O   0  0  0  0  0  0  0  0  0  0  0  0
   33.6140   14.3230   31.6970 H   0  0  0  0  0  0  0  0  0  0  0  0
  1  2  1  0  0  0  0
  2 13  1  0  0  0  0
  3  4  1  0  0  0  0
  3  2  2  0  0  0  0
  4  5  2  0  0  0  0
  5  6  1  0  0  0  0
  5 12  1  0  0  0  0
  6  8  2  0  0  0  0
  7  6  1  0  0  0  0
  8 14  1  0  0  0  0
  8  9  1  0  0  0  0
  9 10  1  0  0  0  0
 11  9  2  0  0  0  0
 12 11  1  0  0  0  0
 13 12  2  0  0  0  0
 14 15  2  0  0  0  0
 16 14  1  0  0  0  0
 16 17  1  0  0  0  0
M  END
>  <minimizedAffinity>
-4.87482023

>  <CNNscore>
0.817758381

>  <CNNaffinity>
4.84743643

$$$$
