
 OpenBabel01272601103D

 15 15  0  0  1  0  0  0  0  0999 V2000
   39.9240   12.2170   30.0830 N   0  0  0  0  0  0  0  0  0  0  0  0
   38.8270   12.7490   30.7360 C   0  0  0  0  0  0  0  0  0  0  0  0
   38.1590   13.7260   30.3990 O   0  0  0  0  0  0  0  0  0  0  0  0
   40.3170   11.3780   30.4860 H   0  0  0  0  0  0  0  0  0  0  0  0
   38.8120   11.4100   27.5240 C   0  0  0  0  0  0  0  0  0  0  0  0
   40.0190   12.3000   27.6510 C   0  0  0  0  0  0  0  0  0  0  0  0
   40.6320   12.7580   26.4700 C   0  0  0  0  0  0  0  0  0  0  0  0
   41.7510   13.5840   26.5180 C   0  0  0  0  0  0  0  0  0  0  0  0
   42.2740   13.9620   27.7490 C   0  0  0  0  0  0  0  0  0  0  0  0
   41.6770   13.5160   28.9320 C   0  0  0  0  0  0  0  0  0  0  0  0
   40.5500   12.6870   28.9040 C   0  0  0  0  0  0  0  0  0  0  0  0
   38.4400   11.9760   32.0140 C   0  0  1  0  0  0  0  0  0  0  0  0
   39.1800   10.6510   32.1050 C   0  0  0  0  0  0  0  0  0  0  0  0
   38.7390   12.7330   33.1840 O   0  0  0  0  0  0  0  0  0  0  0  0
   39.2740   13.4970   32.8790 H   0  0  0  0  0  0  0  0  0  0  0  0
  1  4  1  0  0  0  0
  1  2  1  0  0  0  0
  2 12  1  0  0  0  0
  3  2  2  0  0  0  0
  5  6  1  0  0  0  0
  6 11  1  0  0  0  0
  7  8  1  0  0  0  0
  7  6  2  0  0  0  0
  8  9  2  0  0  0  0
  9 10  1  0  0  0  0
 11 10  2  0  0  0  0
 11  1  1  0  0  0  0
 12 13  1  1  0  0  0
 12 14  1  0  0  0  0
 15 14  1  0  0  0  0
M  END
>  <minimizedAffinity>
-4.26913834

>  <CNNscore>
0.783197105

>  <CNNaffinity>
3.19504356

$$$$
