
 OpenBabel01272601113D

 12 13  0  0  0  0  0  0  0  0999 V2000
   41.2980   14.1300   24.4020 S   0  0  0  0  0  0  0  0  0  0  0  0
   41.0860   13.1900   25.7390 C   0  0  0  0  0  0  0  0  0  0  0  0
   42.0970   12.6360   26.5320 N   0  0  0  0  0  0  0  0  0  0  0  0
   41.4990   11.9110   27.5600 C   0  0  0  0  0  0  0  0  0  0  0  0
   42.0760   11.1950   28.5810 C   0  0  0  0  0  0  0  0  0  0  0  0
   41.2050   10.5640   29.4760 C   0  0  0  0  0  0  0  0  0  0  0  0
   39.8030   10.6660   29.3260 C   0  0  0  0  0  0  0  0  0  0  0  0
   39.2390   11.4030   28.2760 C   0  0  0  0  0  0  0  0  0  0  0  0
   40.1160   12.0120   27.4120 C   0  0  0  0  0  0  0  0  0  0  0  0
   39.8590   12.7990   26.2910 N   0  0  0  0  0  0  0  0  0  0  0  0
   43.0870   12.7500   26.3730 H   0  0  0  0  0  0  0  0  0  0  0  0
   38.9530   13.0520   25.9280 H   0  0  0  0  0  0  0  0  0  0  0  0
  1  2  2  0  0  0  0
  2 10  1  0  0  0  0
  2  3  1  0  0  0  0
  3  4  1  0  0  0  0
  4  5  1  0  0  0  0
  5  6  2  0  0  0  0
  7  6  1  0  0  0  0
  8  7  2  0  0  0  0
  9  4  2  0  0  0  0
  9  8  1  0  0  0  0
 10  9  1  0  0  0  0
 11  3  1  0  0  0  0
 12 10  1  0  0  0  0
M  END
>  <minimizedAffinity>
-4.30254269

>  <CNNscore>
0.876063049

>  <CNNaffinity>
3.54131246

$$$$
