
 OpenBabel01272601113D

 13 14  0  0  0  0  0  0  0  0999 V2000
   33.9950   14.7120   31.5670 N   0  0  0  0  0  0  0  0  0  0  0  0
   32.6100   14.6500   31.6640 C   0  0  0  0  0  0  0  0  0  0  0  0
   31.8880   14.6310   30.5190 N   0  0  0  0  0  0  0  0  0  0  0  0
   30.5400   14.5780   30.6110 C   0  0  0  0  0  0  0  0  0  0  0  0
   29.7750   14.5240   31.7210 N   0  0  0  0  0  0  0  0  0  0  0  0
   30.5440   14.5290   32.8200 C   0  0  0  0  0  0  0  0  0  0  0  0
   30.1250   14.4770   34.1170 N   0  0  0  0  0  0  0  0  0  0  0  0
   31.2400   14.4930   34.9110 C   0  0  0  0  0  0  0  0  0  0  0  0
   32.3480   14.5540   34.2030 N   0  0  0  0  0  0  0  0  0  0  0  0
   31.9250   14.5870   32.8880 C   0  0  0  0  0  0  0  0  0  0  0  0
   34.4710   14.3820   32.3990 H   0  0  0  0  0  0  0  0  0  0  0  0
   34.3280   14.3850   30.6710 H   0  0  0  0  0  0  0  0  0  0  0  0
   29.1640   14.4330   34.4180 H   0  0  0  0  0  0  0  0  0  0  0  0
  1  2  1  0  0  0  0
  1 11  1  0  0  0  0
  2 10  1  0  0  0  0
  3  4  1  0  0  0  0
  3  2  2  0  0  0  0
  4  5  2  0  0  0  0
  5  6  1  0  0  0  0
  6 10  2  0  0  0  0
  6  7  1  0  0  0  0
  7 13  1  0  0  0  0
  7  8  1  0  0  0  0
  9  8  2  0  0  0  0
 10  9  1  0  0  0  0
 12  1  1  0  0  0  0
M  END
>  <minimizedAffinity>
-3.7828083

>  <CNNscore>
0.644969583

>  <CNNaffinity>
3.39076161

$$$$
