
 OpenBabel01272601133D

 13 14  0  0  0  0  0  0  0  0999 V2000
   41.4810   13.9030   24.0740 S   0  0  0  0  0  0  0  0  0  0  0  0
   41.3980   13.5890   25.7040 C   0  0  0  0  0  0  0  0  0  0  0  0
   42.4070   13.9530   26.5340 N   0  0  0  0  0  0  0  0  0  0  0  0
   42.3180   13.9190   27.9760 C   0  0  0  0  0  0  0  0  0  0  0  0
   41.2170   13.0390   28.4810 C   0  0  0  0  0  0  0  0  0  0  0  0
   41.1200   12.7000   29.8350 C   0  0  0  0  0  0  0  0  0  0  0  0
   40.0500   11.9250   30.2890 C   0  0  0  0  0  0  0  0  0  0  0  0
   39.0700   11.4950   29.3950 C   0  0  0  0  0  0  0  0  0  0  0  0
   39.1570   11.8350   28.0440 C   0  0  0  0  0  0  0  0  0  0  0  0
   40.2320   12.6020   27.5950 C   0  0  0  0  0  0  0  0  0  0  0  0
   40.3340   12.9380   26.2430 N   0  0  0  0  0  0  0  0  0  0  0  0
   43.1640   14.4730   26.1080 H   0  0  0  0  0  0  0  0  0  0  0  0
   39.6130   12.6360   25.5990 H   0  0  0  0  0  0  0  0  0  0  0  0
  1  2  2  0  0  0  0
  2 11  1  0  0  0  0
  2  3  1  0  0  0  0
  3  4  1  0  0  0  0
  4  5  1  0  0  0  0
  5  6  1  0  0  0  0
  6  7  2  0  0  0  0
  8  7  1  0  0  0  0
  9  8  2  0  0  0  0
 10  9  1  0  0  0  0
 10  5  2  0  0  0  0
 11 10  1  0  0  0  0
 12  3  1  0  0  0  0
 13 11  1  0  0  0  0
M  END
>  <minimizedAffinity>
-4.75216293

>  <CNNscore>
0.836905956

>  <CNNaffinity>
3.68452454

$$$$
