
 OpenBabel01272601113D

 15 15  0  0  1  0  0  0  0  0999 V2000
   31.3750   14.5340   29.6310 N   0  0  0  0  0  0  0  0  0  0  0  0
   32.3650   14.7760   29.6400 H   0  0  0  0  0  0  0  0  0  0  0  0
   33.1090   14.7050   31.9370 C   0  0  0  0  0  0  0  0  0  0  0  0
   31.6220   14.4870   32.0450 C   0  0  0  0  0  0  0  0  0  0  0  0
   31.0660   14.3680   33.3330 C   0  0  0  0  0  0  0  0  0  0  0  0
   29.7010   14.1630   33.5060 C   0  0  0  0  0  0  0  0  0  0  0  0
   28.8760   14.0860   32.3920 C   0  0  0  0  0  0  0  0  0  0  0  0
   29.4130   14.2050   31.1060 C   0  0  0  0  0  0  0  0  0  0  0  0
   30.7840   14.3910   30.9090 C   0  0  0  0  0  0  0  0  0  0  0  0
   30.9150   14.3280   28.3360 C   0  0  0  0  0  0  0  0  0  0  0  0
   29.9780   15.3050   27.3520 S   0  0  0  0  0  0  0  0  0  0  0  0
   31.3490   12.9420   27.8080 C   0  0  1  0  0  0  0  0  0  0  0  0
   31.8800   13.0470   26.3840 C   0  0  0  0  0  0  0  0  0  0  0  0
   32.4110   12.4510   28.6340 O   0  0  0  0  0  0  0  0  0  0  0  0
   32.0030   12.2060   29.4860 H   0  0  0  0  0  0  0  0  0  0  0  0
  1  2  1  0  0  0  0
  1  9  1  0  0  0  0
  3  4  1  0  0  0  0
  4  5  1  0  0  0  0
  5  6  2  0  0  0  0
  7  6  1  0  0  0  0
  8  7  2  0  0  0  0
  9  8  1  0  0  0  0
  9  4  2  0  0  0  0
 10  1  1  0  0  0  0
 11 10  2  0  0  0  0
 12 13  1  6  0  0  0
 12 10  1  0  0  0  0
 12 14  1  0  0  0  0
 14 15  1  0  0  0  0
M  END
>  <minimizedAffinity>
-4.98143005

>  <CNNscore>
0.886258721

>  <CNNaffinity>
3.67457652

$$$$
