
 OpenBabel01272601103D

 14 15  0  0  0  0  0  0  0  0999 V2000
   43.0910   13.8780   28.9930 O   0  0  0  0  0  0  0  0  0  0  0  0
   42.2310   13.5690   28.1780 C   0  0  0  0  0  0  0  0  0  0  0  0
   42.3480   13.8270   26.8220 N   0  0  0  0  0  0  0  0  0  0  0  0
   41.4220   13.5070   25.8470 C   0  0  0  0  0  0  0  0  0  0  0  0
   41.7000   13.8820   24.2490 S   0  0  0  0  0  0  0  0  0  0  0  0
   40.2720   12.8740   26.2450 N   0  0  0  0  0  0  0  0  0  0  0  0
   40.0760   12.5830   27.5630 C   0  0  0  0  0  0  0  0  0  0  0  0
   39.0010   11.9660   28.1030 N   0  0  0  0  0  0  0  0  0  0  0  0
   39.2770   11.9140   29.3930 C   0  0  0  0  0  0  0  0  0  0  0  0
   40.4960   12.4800   29.6820 N   0  0  0  0  0  0  0  0  0  0  0  0
   41.0120   12.9130   28.4980 C   0  0  0  0  0  0  0  0  0  0  0  0
   43.1960   14.2930   26.5320 H   0  0  0  0  0  0  0  0  0  0  0  0
   39.5530   12.6130   25.5840 H   0  0  0  0  0  0  0  0  0  0  0  0
   40.9280   12.5610   30.5930 H   0  0  0  0  0  0  0  0  0  0  0  0
  2 11  1  0  0  0  0
  2  1  2  0  0  0  0
  3  2  1  0  0  0  0
  4  6  1  0  0  0  0
  4  3  1  0  0  0  0
  5  4  2  0  0  0  0
  6  7  1  0  0  0  0
  7  8  1  0  0  0  0
  7 11  2  0  0  0  0
  8  9  2  0  0  0  0
  9 10  1  0  0  0  0
 10 14  1  0  0  0  0
 11 10  1  0  0  0  0
 12  3  1  0  0  0  0
 13  6  1  0  0  0  0
M  END
>  <minimizedAffinity>
-4.41938591

>  <CNNscore>
0.828422546

>  <CNNaffinity>
3.45778441

$$$$
