
 OpenBabel01272601123D

 14 15  0  0  0  0  0  0  0  0999 V2000
   38.1290   11.9940   27.9480 O   0  0  0  0  0  0  0  0  0  0  0  0
   39.3180   12.0340   27.6550 C   0  0  0  0  0  0  0  0  0  0  0  0
   39.7900   12.7930   26.6070 N   0  0  0  0  0  0  0  0  0  0  0  0
   41.0930   12.8920   26.2170 C   0  0  0  0  0  0  0  0  0  0  0  0
   41.5460   13.8430   24.9310 S   0  0  0  0  0  0  0  0  0  0  0  0
   42.0140   12.1800   26.9250 N   0  0  0  0  0  0  0  0  0  0  0  0
   41.6670   11.3700   28.0130 C   0  0  0  0  0  0  0  0  0  0  0  0
   42.6530   10.6630   28.7000 C   0  0  0  0  0  0  0  0  0  0  0  0
   42.2950    9.8580   29.7850 C   0  0  0  0  0  0  0  0  0  0  0  0
   40.9590    9.7600   30.1810 C   0  0  0  0  0  0  0  0  0  0  0  0
   39.9720   10.4660   29.4930 C   0  0  0  0  0  0  0  0  0  0  0  0
   40.3320   11.2710   28.4090 C   0  0  0  0  0  0  0  0  0  0  0  0
   39.0970   13.3160   26.0900 H   0  0  0  0  0  0  0  0  0  0  0  0
   42.9840   12.2520   26.6370 H   0  0  0  0  0  0  0  0  0  0  0  0
  2  1  2  0  0  0  0
  2 12  1  0  0  0  0
  3  2  1  0  0  0  0
  4  3  1  0  0  0  0
  4  6  1  0  0  0  0
  5  4  2  0  0  0  0
  6  7  1  0  0  0  0
  7 12  2  0  0  0  0
  7  8  1  0  0  0  0
  8  9  2  0  0  0  0
  9 10  1  0  0  0  0
 11 10  2  0  0  0  0
 12 11  1  0  0  0  0
 13  3  1  0  0  0  0
 14  6  1  0  0  0  0
M  END
>  <minimizedAffinity>
-4.79305553

>  <CNNscore>
0.83265692

>  <CNNaffinity>
3.83941579

$$$$
