
 OpenBabel01272601123D

 11 11  0  0  0  0  0  0  0  0999 V2000
   41.9430   13.7440   24.6680 C   0  0  0  0  0  0  0  0  0  0  0  0
   41.3790   13.3820   26.0060 C   0  0  0  0  0  0  0  0  0  0  0  0
   40.2300   12.6760   26.0350 N   0  0  0  0  0  0  0  0  0  0  0  0
   39.7630   12.3330   27.2540 C   0  0  0  0  0  0  0  0  0  0  0  0
   40.3870   12.6780   28.4320 C   0  0  0  0  0  0  0  0  0  0  0  0
   41.5620   13.3840   28.2980 C   0  0  0  0  0  0  0  0  0  0  0  0
   42.0750   13.7480   27.1010 N   0  0  0  0  0  0  0  0  0  0  0  0
   39.8350   12.3020   29.7310 C   0  0  0  0  0  0  0  0  0  0  0  0
   39.7970   10.7980   30.4240 S   0  0  0  0  0  0  0  0  0  0  0  0
   39.3250   13.3250   30.4490 O   0  0  0  0  0  0  0  0  0  0  0  0
   39.4900   14.2000   30.0630 H   0  0  0  0  0  0  0  0  0  0  0  0
  1  2  1  0  0  0  0
  2  3  2  0  0  0  0
  2  7  1  0  0  0  0
  3  4  1  0  0  0  0
  4  5  2  0  0  0  0
  5  8  1  0  0  0  0
  6  5  1  0  0  0  0
  7  6  2  0  0  0  0
  8  9  2  0  0  0  0
  8 10  1  0  0  0  0
 11 10  1  0  0  0  0
M  END
>  <minimizedAffinity>
-3.86429381

>  <CNNscore>
0.859542131

>  <CNNaffinity>
3.10603452

$$$$
