
 OpenBabel01272601093D

 18 19  0  0  0  0  0  0  0  0999 V2000
   41.9510   12.0010   27.5260 C   0  0  0  0  0  0  0  0  0  0  0  0
   40.5560   12.1880   28.0420 C   0  0  0  0  0  0  0  0  0  0  0  0
   39.4560   11.8300   27.2690 C   0  0  0  0  0  0  0  0  0  0  0  0
   38.1650   11.9800   27.7820 C   0  0  0  0  0  0  0  0  0  0  0  0
   37.9400   12.4810   29.0860 C   0  0  0  0  0  0  0  0  0  0  0  0
   36.6510   12.6510   29.6630 C   0  0  0  0  0  0  0  0  0  0  0  0
   35.4100   12.2440   28.9070 C   0  0  0  0  0  0  0  0  0  0  0  0
   36.5630   13.2130   30.9510 C   0  0  0  0  0  0  0  0  0  0  0  0
   37.7310   13.5150   31.6490 C   0  0  0  0  0  0  0  0  0  0  0  0
   37.7120   14.0840   33.0400 C   0  0  0  0  0  0  0  0  0  0  0  0
   38.9620   13.3280   31.1110 N   0  0  0  0  0  0  0  0  0  0  0  0
   39.0640   12.8370   29.8670 C   0  0  0  0  0  0  0  0  0  0  0  0
   40.3380   12.6760   29.3370 C   0  0  0  0  0  0  0  0  0  0  0  0
   35.2610   13.5170   31.5790 C   0  0  0  0  0  0  0  0  0  0  0  0
   34.7690   14.7700   31.3430 N   0  0  0  0  0  0  0  0  0  0  0  0
   34.6790   12.7100   32.2880 O   0  0  0  0  0  0  0  0  0  0  0  0
   33.9210   15.0380   31.8240 H   0  0  0  0  0  0  0  0  0  0  0  0
   35.3010   15.4840   30.8650 H   0  0  0  0  0  0  0  0  0  0  0  0
  1  2  1  0  0  0  0
  2 13  1  0  0  0  0
  3  4  1  0  0  0  0
  3  2  2  0  0  0  0
  4  5  2  0  0  0  0
  5  6  1  0  0  0  0
  5 12  1  0  0  0  0
  6  8  2  0  0  0  0
  7  6  1  0  0  0  0
  8 14  1  0  0  0  0
  8  9  1  0  0  0  0
  9 10  1  0  0  0  0
 11  9  2  0  0  0  0
 12 11  1  0  0  0  0
 13 12  2  0  0  0  0
 14 16  2  0  0  0  0
 15 14  1  0  0  0  0
 15 17  1  0  0  0  0
 18 15  1  0  0  0  0
M  END
>  <minimizedAffinity>
-4.93927193

>  <CNNscore>
0.889066041

>  <CNNaffinity>
4.70223618

$$$$
