
 OpenBabel01272601083D

 20 21  0  0  0  0  0  0  0  0999 V2000
   39.4810   12.4930   29.9680 S   0  0  0  0  0  0  0  0  0  0  0  0
   38.2040   11.9610   29.5340 O   0  0  0  0  0  0  0  0  0  0  0  0
   39.5240   13.6560   30.8290 O   0  0  0  0  0  0  0  0  0  0  0  0
   40.2820   11.2250   30.6770 N   0  0  0  0  0  0  0  0  0  0  0  0
   39.5530   10.3940   31.5180 C   0  0  0  0  0  0  0  0  0  0  0  0
   38.7490   10.9340   32.4320 N   0  0  0  0  0  0  0  0  0  0  0  0
   38.2040   10.0720   33.3100 C   0  0  0  0  0  0  0  0  0  0  0  0
   38.4730    8.7240   33.3140 C   0  0  0  0  0  0  0  0  0  0  0  0
   39.3610    8.2950   32.3540 C   0  0  0  0  0  0  0  0  0  0  0  0
   39.9350    9.1130   31.4540 N   0  0  0  0  0  0  0  0  0  0  0  0
   40.8930   10.7210   30.0460 H   0  0  0  0  0  0  0  0  0  0  0  0
   41.8140   13.4070   26.1410 C   0  0  0  0  0  0  0  0  0  0  0  0
   42.3320   13.7740   27.3880 C   0  0  0  0  0  0  0  0  0  0  0  0
   41.6240   13.5050   28.5620 C   0  0  0  0  0  0  0  0  0  0  0  0
   40.4120   12.8160   28.4910 C   0  0  0  0  0  0  0  0  0  0  0  0
   39.9050   12.4010   27.2590 C   0  0  0  0  0  0  0  0  0  0  0  0
   40.6220   12.6770   26.0910 C   0  0  0  0  0  0  0  0  0  0  0  0
   42.5840   13.5760   24.9830 N   0  0  0  0  0  0  0  0  0  0  0  0
   43.2340   14.3550   25.0340 H   0  0  0  0  0  0  0  0  0  0  0  0
   42.0400   13.5860   24.1270 H   0  0  0  0  0  0  0  0  0  0  0  0
  1  4  1  0  0  0  0
  1  3  2  0  0  0  0
  2  1  2  0  0  0  0
  4  5  1  0  0  0  0
  5  6  1  0  0  0  0
  6  7  2  0  0  0  0
  7  8  1  0  0  0  0
  9  8  2  0  0  0  0
 10  5  2  0  0  0  0
 10  9  1  0  0  0  0
 11  4  1  0  0  0  0
 12 13  1  0  0  0  0
 13 14  2  0  0  0  0
 15 14  1  0  0  0  0
 15  1  1  0  0  0  0
 16 15  2  0  0  0  0
 17 12  2  0  0  0  0
 17 16  1  0  0  0  0
 18 19  1  0  0  0  0
 18 12  1  0  0  0  0
 20 18  1  0  0  0  0
M  END
>  <minimizedAffinity>
-5.11132097

>  <CNNscore>
0.737836003

>  <CNNaffinity>
4.04217863

$$$$
