
 OpenBabel01272601103D

 12 13  0  0  0  0  0  0  0  0999 V2000
   38.6400   11.6730   31.1960 O   0  0  0  0  0  0  0  0  0  0  0  0
   39.0740   11.9160   30.0740 C   0  0  0  0  0  0  0  0  0  0  0  0
   40.2010   12.6700   29.9160 N   0  0  0  0  0  0  0  0  0  0  0  0
   40.7730   13.0010   28.6970 C   0  0  0  0  0  0  0  0  0  0  0  0
   41.9280   13.7800   28.6490 C   0  0  0  0  0  0  0  0  0  0  0  0
   42.4900   14.1040   27.4140 C   0  0  0  0  0  0  0  0  0  0  0  0
   41.8950   13.6490   26.2380 C   0  0  0  0  0  0  0  0  0  0  0  0
   40.7380   12.8710   26.2960 C   0  0  0  0  0  0  0  0  0  0  0  0
   40.1710   12.5440   27.5350 C   0  0  0  0  0  0  0  0  0  0  0  0
   38.9350   11.7130   27.6320 C   0  0  0  0  0  0  0  0  0  0  0  0
   38.4550   11.4490   28.9620 O   0  0  0  0  0  0  0  0  0  0  0  0
   40.6180   12.9890   30.7790 H   0  0  0  0  0  0  0  0  0  0  0  0
  2  1  2  0  0  0  0
  3  2  1  0  0  0  0
  3 12  1  0  0  0  0
  4  3  1  0  0  0  0
  5  4  1  0  0  0  0
  6  5  2  0  0  0  0
  7  8  2  0  0  0  0
  7  6  1  0  0  0  0
  8  9  1  0  0  0  0
  9 10  1  0  0  0  0
  9  4  2  0  0  0  0
 10 11  1  0  0  0  0
 11  2  1  0  0  0  0
M  END
>  <minimizedAffinity>
-4.12814808

>  <CNNscore>
0.870552421

>  <CNNaffinity>
2.90710831

$$$$
