
 OpenBabel01272601113D

 11 11  0  0  1  0  0  0  0  0999 V2000
   31.8970   13.3670   25.5070 C   0  0  0  0  0  0  0  0  0  0  0  0
   31.5660   13.2480   26.9510 C   0  0  2  0  0  0  0  0  0  0  0  0
   31.9730   12.2940   27.7980 C   0  0  0  0  0  0  0  0  0  0  0  0
   31.3900   12.4770   29.1740 C   0  0  2  0  0  0  0  0  0  0  0  0
   30.8310   13.9130   29.1010 C   0  0  0  0  0  0  0  0  0  0  0  0
   30.6470   14.2240   27.6160 C   0  0  0  0  0  0  0  0  0  0  0  0
   32.3450   12.2230   30.3700 C   0  0  0  0  0  0  0  0  0  0  0  0
   33.6560   11.5230   29.9820 C   0  0  0  0  0  0  0  0  0  0  0  0
   31.6370   11.4050   31.4600 C   0  0  0  0  0  0  0  0  0  0  0  0
   32.6770   13.4970   30.9410 O   0  0  0  0  0  0  0  0  0  0  0  0
   33.2750   13.3410   31.6920 H   0  0  0  0  0  0  0  0  0  0  0  0
  2  1  1  6  0  0  0
  2  6  1  0  0  0  0
  2  3  1  0  0  0  0
  3  4  1  0  0  0  0
  4  7  1  1  0  0  0
  5  4  1  0  0  0  0
  6  5  1  0  0  0  0
  7 10  1  0  0  0  0
  7  9  1  0  0  0  0
  8  7  1  0  0  0  0
 10 11  1  0  0  0  0
M  END
>  <minimizedAffinity>
-4.52546406

>  <CNNscore>
0.826154113

>  <CNNaffinity>
3.41323781

$$$$
