
 OpenBabel01272601083D

 19 20  0  0  0  0  0  0  0  0999 V2000
   44.3170   -1.4170   22.9170 O   0  0  0  0  0  0  0  0  0  0  0  0
   44.3060   -0.7410   21.6380 S   0  0  0  0  0  0  0  0  0  0  0  0
   45.4890   -0.7570   20.8000 O   0  0  0  0  0  0  0  0  0  0  0  0
   43.9170    0.8600   21.8380 N   0  0  0  0  0  0  0  0  0  0  0  0
   44.3960    1.7560   20.8900 C   0  0  0  0  0  0  0  0  0  0  0  0
   45.6770    1.6960   20.5280 N   0  0  0  0  0  0  0  0  0  0  0  0
   46.1010    2.6890   19.7260 C   0  0  0  0  0  0  0  0  0  0  0  0
   45.3010    3.7350   19.3270 C   0  0  0  0  0  0  0  0  0  0  0  0
   44.0140    3.7140   19.8130 C   0  0  0  0  0  0  0  0  0  0  0  0
   43.5380    2.7450   20.6180 N   0  0  0  0  0  0  0  0  0  0  0  0
   42.9430    1.0160   22.0750 H   0  0  0  0  0  0  0  0  0  0  0  0
   42.9820   -1.3800   20.6410 C   0  0  0  0  0  0  0  0  0  0  0  0
   41.8540   -0.5950   20.3870 C   0  0  0  0  0  0  0  0  0  0  0  0
   40.8090   -1.1210   19.6250 C   0  0  0  0  0  0  0  0  0  0  0  0
   40.8980   -2.4210   19.1380 C   0  0  0  0  0  0  0  0  0  0  0  0
   42.0140   -3.2140   19.3980 C   0  0  0  0  0  0  0  0  0  0  0  0
   43.0620   -2.6920   20.1580 C   0  0  0  0  0  0  0  0  0  0  0  0
   39.8520   -2.8920   18.3990 O   0  0  0  0  0  0  0  0  0  0  0  0
   40.0390   -3.8100   18.1450 H   0  0  0  0  0  0  0  0  0  0  0  0
  2  4  1  0  0  0  0
  2  1  2  0  0  0  0
  3  2  2  0  0  0  0
  4 11  1  0  0  0  0
  5  4  1  0  0  0  0
  6  5  2  0  0  0  0
  7  6  1  0  0  0  0
  8  7  2  0  0  0  0
  8  9  1  0  0  0  0
  9 10  2  0  0  0  0
 10  5  1  0  0  0  0
 12  2  1  0  0  0  0
 13 12  1  0  0  0  0
 14 13  2  0  0  0  0
 15 16  2  0  0  0  0
 15 14  1  0  0  0  0
 16 17  1  0  0  0  0
 17 12  2  0  0  0  0
 18 15  1  0  0  0  0
 19 18  1  0  0  0  0
M  END
>  <minimizedAffinity>
-5.36399317

>  <CNNscore>
0.433567673

>  <CNNaffinity>
3.11325836

$$$$
