
 OpenBabel01272601083D

 20 21  0  0  0  0  0  0  0  0999 V2000
   43.8010   -0.8440   22.6590 S   0  0  1  0  0  0  0  0  0  0  0  0
   43.1050   -0.3310   23.8180 O   0  0  0  0  0  0  0  0  0  0  0  0
   45.2120    0.5070   22.0660 S   0  0  0  0  0  0  0  0  0  0  0  0
   44.4380   -2.3340   23.0680 N   0  0  0  0  0  0  0  0  0  0  0  0
   43.6220   -3.4560   23.0110 C   0  0  0  0  0  0  0  0  0  0  0  0
   42.3710   -3.4410   23.4840 N   0  0  0  0  0  0  0  0  0  0  0  0
   41.6630   -4.5830   23.4060 C   0  0  0  0  0  0  0  0  0  0  0  0
   42.1660   -5.7490   22.8900 C   0  0  0  0  0  0  0  0  0  0  0  0
   43.4630   -5.6770   22.4500 C   0  0  0  0  0  0  0  0  0  0  0  0
   44.2080   -4.5550   22.5060 N   0  0  0  0  0  0  0  0  0  0  0  0
   45.2190   -2.5930   22.4810 H   0  0  0  0  0  0  0  0  0  0  0  0
   40.8180   -1.4930   19.2710 C   0  0  0  0  0  0  0  0  0  0  0  0
   42.1640   -1.8360   19.1120 C   0  0  0  0  0  0  0  0  0  0  0  0
   43.0860   -1.6150   20.1390 C   0  0  0  0  0  0  0  0  0  0  0  0
   42.6450   -1.0760   21.3490 C   0  0  0  0  0  0  0  0  0  0  0  0
   41.2950   -0.7860   21.5480 C   0  0  0  0  0  0  0  0  0  0  0  0
   40.3860   -1.0140   20.5120 C   0  0  0  0  0  0  0  0  0  0  0  0
   39.8850   -1.8310   18.2850 N   0  0  0  0  0  0  0  0  0  0  0  0
   40.2690   -1.8600   17.3460 H   0  0  0  0  0  0  0  0  0  0  0  0
   39.0250   -1.2930   18.3290 H   0  0  0  0  0  0  0  0  0  0  0  0
  1  3  1  6  0  0  0
  1  4  1  0  0  0  0
  1  2  1  0  0  0  0
  5  4  1  0  0  0  0
  5  6  1  0  0  0  0
  7  6  2  0  0  0  0
  8  7  1  0  0  0  0
  9 10  1  0  0  0  0
  9  8  2  0  0  0  0
 10  5  2  0  0  0  0
 11  4  1  0  0  0  0
 12 17  1  0  0  0  0
 13 12  2  0  0  0  0
 13 14  1  0  0  0  0
 14 15  2  0  0  0  0
 15 16  1  0  0  0  0
 15  1  1  0  0  0  0
 17 16  2  0  0  0  0
 18 20  1  0  0  0  0
 18 12  1  0  0  0  0
 19 18  1  0  0  0  0
M  END
>  <minimizedAffinity>
-5.00554276

>  <CNNscore>
0.718558848

>  <CNNaffinity>
3.69498444

$$$$
