
 OpenBabel01272601133D

 13 13  0  0  1  0  0  0  0  0999 V2000
   38.8280   12.0450   28.8710 C   0  0  0  0  0  0  0  0  0  0  0  0
   39.0980   12.2480   30.1720 C   0  0  0  0  0  0  0  0  0  0  0  0
   38.1230   12.8480   31.1460 C   0  0  0  0  0  0  0  0  0  0  0  0
   36.9190   13.5540   30.4790 C   0  0  1  0  0  0  0  0  0  0  0  0
   36.3980   12.6600   29.3360 C   0  0  0  0  0  0  0  0  0  0  0  0
   37.4830   12.3920   28.2850 C   0  0  0  0  0  0  0  0  0  0  0  0
   35.8140   13.9390   31.5090 C   0  0  0  0  0  0  0  0  0  0  0  0
   36.0760   13.3150   32.8870 C   0  0  0  0  0  0  0  0  0  0  0  0
   35.6950   15.4620   31.6740 C   0  0  0  0  0  0  0  0  0  0  0  0
   34.5520   13.4520   31.0430 O   0  0  0  0  0  0  0  0  0  0  0  0
   33.8700   13.7130   31.6860 H   0  0  0  0  0  0  0  0  0  0  0  0
   40.2980   12.5000   26.8710 C   0  0  0  0  0  0  0  0  0  0  0  0
   39.8650   11.4890   27.9240 C   0  0  0  0  0  0  0  0  0  0  0  0
  1  2  2  0  0  0  0
  2  3  1  0  0  0  0
  4  3  1  0  0  0  0
  4  7  1  1  0  0  0
  5  4  1  0  0  0  0
  6  1  1  0  0  0  0
  6  5  1  0  0  0  0
  7  9  1  0  0  0  0
  7  8  1  0  0  0  0
 10  7  1  0  0  0  0
 10 11  1  0  0  0  0
 12 13  1  0  0  0  0
 13  1  1  0  0  0  0
M  END
>  <minimizedAffinity>
-4.0057044

>  <CNNscore>
0.763812184

>  <CNNaffinity>
3.85060215

$$$$
