
 OpenBabel01272601093D

 16 18  0  0  0  0  0  0  0  0999 V2000
   29.6420   16.1640   29.3510 O   0  0  0  0  0  0  0  0  0  0  0  0
   30.3490   15.1630   29.2870 C   0  0  0  0  0  0  0  0  0  0  0  0
   30.6870   14.5580   27.9730 C   0  0  0  0  0  0  0  0  0  0  0  0
   30.2110   15.1330   26.7900 C   0  0  0  0  0  0  0  0  0  0  0  0
   30.5320   14.5510   25.5640 C   0  0  0  0  0  0  0  0  0  0  0  0
   31.3180   13.3980   25.5240 C   0  0  0  0  0  0  0  0  0  0  0  0
   31.7910   12.8260   26.7090 C   0  0  0  0  0  0  0  0  0  0  0  0
   31.4960   13.4110   27.9440 C   0  0  0  0  0  0  0  0  0  0  0  0
   31.9200   12.8130   29.1420 N   0  0  0  0  0  0  0  0  0  0  0  0
   31.6900   13.3890   30.4010 C   0  0  0  0  0  0  0  0  0  0  0  0
   32.1730   12.7830   31.5650 C   0  0  0  0  0  0  0  0  0  0  0  0
   31.8930   13.3330   32.8190 C   0  0  0  0  0  0  0  0  0  0  0  0
   31.1120   14.4860   32.9230 C   0  0  0  0  0  0  0  0  0  0  0  0
   30.6040   15.0890   31.7730 C   0  0  0  0  0  0  0  0  0  0  0  0
   30.8870   14.5350   30.5190 C   0  0  0  0  0  0  0  0  0  0  0  0
   32.6830   12.1520   29.0760 H   0  0  0  0  0  0  0  0  0  0  0  0
  2  1  2  0  0  0  0
  2 15  1  0  0  0  0
  3  2  1  0  0  0  0
  4  3  2  0  0  0  0
  5  4  1  0  0  0  0
  6  5  2  0  0  0  0
  6  7  1  0  0  0  0
  7  8  2  0  0  0  0
  8  3  1  0  0  0  0
  8  9  1  0  0  0  0
  9 10  1  0  0  0  0
 10 15  2  0  0  0  0
 10 11  1  0  0  0  0
 11 12  2  0  0  0  0
 12 13  1  0  0  0  0
 14 13  2  0  0  0  0
 15 14  1  0  0  0  0
 16  9  1  0  0  0  0
M  END
>  <minimizedAffinity>
-6.11609459

>  <CNNscore>
0.762316942

>  <CNNaffinity>
3.88449287

$$$$
