
 OpenBabel01272601093D

 12 12  0  0  1  0  0  0  0  0999 V2000
   31.7720   13.1320   25.2770 C   0  0  0  0  0  0  0  0  0  0  0  0
   31.4830   13.3830   26.7290 C   0  0  0  0  0  0  0  0  0  0  0  0
   32.0090   12.6230   27.7050 C   0  0  0  0  0  0  0  0  0  0  0  0
   31.7180   12.8180   29.1660 C   0  0  0  0  0  0  0  0  0  0  0  0
   30.4910   13.7200   29.4300 C   0  0  2  0  0  0  0  0  0  0  0  0
   30.5540   14.9500   28.5080 C   0  0  0  0  0  0  0  0  0  0  0  0
   30.5640   14.5400   27.0300 C   0  0  0  0  0  0  0  0  0  0  0  0
   30.3060   14.0610   30.9380 C   0  0  0  0  0  0  0  0  0  0  0  0
   28.8770   14.4630   31.3150 C   0  0  0  0  0  0  0  0  0  0  0  0
   30.7550   12.9020   31.8380 C   0  0  0  0  0  0  0  0  0  0  0  0
   31.1430   15.1820   31.2560 O   0  0  0  0  0  0  0  0  0  0  0  0
   32.0650   14.9270   31.0770 H   0  0  0  0  0  0  0  0  0  0  0  0
  1  2  1  0  0  0  0
  2  7  1  0  0  0  0
  2  3  2  0  0  0  0
  3  4  1  0  0  0  0
  4  5  1  0  0  0  0
  5  8  1  1  0  0  0
  6  5  1  0  0  0  0
  7  6  1  0  0  0  0
  8 11  1  0  0  0  0
  8  9  1  0  0  0  0
  8 10  1  0  0  0  0
 12 11  1  0  0  0  0
M  END
>  <minimizedAffinity>
-4.48485327

>  <CNNscore>
0.748448372

>  <CNNaffinity>
3.36124611

$$$$
