
 OpenBabel01272601123D

 12 13  0  0  0  0  0  0  0  0999 V2000
   41.5480    1.9490   27.6880 C   0  0  0  0  0  0  0  0  0  0  0  0
   41.2520    1.5080   28.9260 N   0  0  0  0  0  0  0  0  0  0  0  0
   40.8070    2.4210   29.8160 C   0  0  0  0  0  0  0  0  0  0  0  0
   40.6120    3.7480   29.6350 N   0  0  0  0  0  0  0  0  0  0  0  0
   40.9280    4.1070   28.3820 C   0  0  0  0  0  0  0  0  0  0  0  0
   40.8620    5.3530   27.8310 N   0  0  0  0  0  0  0  0  0  0  0  0
   41.2800    5.2510   26.5290 C   0  0  0  0  0  0  0  0  0  0  0  0
   41.6100    4.0150   26.2110 N   0  0  0  0  0  0  0  0  0  0  0  0
   41.3930    3.2950   27.3650 C   0  0  0  0  0  0  0  0  0  0  0  0
   40.5570    6.1880   28.3100 H   0  0  0  0  0  0  0  0  0  0  0  0
   42.0000    1.0240   26.7810 O   0  0  0  0  0  0  0  0  0  0  0  0
   42.1530    1.5380   25.9670 H   0  0  0  0  0  0  0  0  0  0  0  0
  1  2  1  0  0  0  0
  2  3  2  0  0  0  0
  4  3  1  0  0  0  0
  5  4  2  0  0  0  0
  6 10  1  0  0  0  0
  6  5  1  0  0  0  0
  7  6  1  0  0  0  0
  8  7  2  0  0  0  0
  8  9  1  0  0  0  0
  9  1  2  0  0  0  0
  9  5  1  0  0  0  0
 11  1  1  0  0  0  0
 12 11  1  0  0  0  0
M  END
>  <minimizedAffinity>
-3.76990962

>  <CNNscore>
0.748410463

>  <CNNaffinity>
2.94343305

$$$$
