
 OpenBabel01272601143D

 15 15  0  0  0  0  0  0  0  0999 V2000
   31.5020   13.0390   28.8500 C   0  0  0  0  0  0  0  0  0  0  0  0
   31.4350   12.8670   27.4560 C   0  0  0  0  0  0  0  0  0  0  0  0
   30.8200   13.8250   26.6430 C   0  0  0  0  0  0  0  0  0  0  0  0
   30.2710   14.9590   27.2300 C   0  0  0  0  0  0  0  0  0  0  0  0
   30.3330   15.1360   28.6090 C   0  0  0  0  0  0  0  0  0  0  0  0
   30.9380   14.1890   29.4240 C   0  0  0  0  0  0  0  0  0  0  0  0
   29.6560   15.9300   26.4900 O   0  0  0  0  0  0  0  0  0  0  0  0
   29.6690   15.6500   25.5580 H   0  0  0  0  0  0  0  0  0  0  0  0
   29.7910   16.2530   29.1770 O   0  0  0  0  0  0  0  0  0  0  0  0
   29.4240   16.7550   28.4220 H   0  0  0  0  0  0  0  0  0  0  0  0
   32.1600   11.9950   29.7220 C   0  0  0  0  0  0  0  0  0  0  0  0
   34.4410   11.9460   28.8030 O   0  0  0  0  0  0  0  0  0  0  0  0
   33.4050   11.3890   29.1210 C   0  0  0  0  0  0  0  0  0  0  0  0
   33.2940   10.0490   28.9850 O   0  0  0  0  0  0  0  0  0  0  0  0
   34.1550    9.7840   28.5970 H   0  0  0  0  0  0  0  0  0  0  0  0
  1  6  1  0  0  0  0
  1 11  1  0  0  0  0
  2  1  2  0  0  0  0
  3  4  2  0  0  0  0
  3  2  1  0  0  0  0
  4  5  1  0  0  0  0
  5  9  1  0  0  0  0
  5  6  2  0  0  0  0
  7  4  1  0  0  0  0
  8  7  1  0  0  0  0
 10  9  1  0  0  0  0
 12 13  2  0  0  0  0
 13 11  1  0  0  0  0
 14 13  1  0  0  0  0
 15 14  1  0  0  0  0
M  END
>  <minimizedAffinity>
-6.21754837

>  <CNNscore>
0.85714066

>  <CNNaffinity>
3.08684921

$$$$
