
 OpenBabel01272601153D

 31 32  0  0  1  0  0  0  0  0999 V2000
   32.8730   12.3040   30.5830 C   0  0  2  0  0  0  0  0  0  0  0  0
   31.4440   12.7210   30.5720 N   0  0  0  0  0  0  0  0  0  0  0  0
   30.8720   11.8880   30.3880 H   0  0  0  0  0  0  0  0  0  0  0  0
   31.0830   13.7600   29.5760 C   0  0  2  0  0  0  0  0  0  0  0  0
   29.9720   14.6790   30.0870 C   0  0  0  0  0  0  0  0  0  0  0  0
   29.8920   15.8810   29.8910 O   0  0  0  0  0  0  0  0  0  0  0  0
   29.0650   14.0670   30.8760 O   0  0  0  0  0  0  0  0  0  0  0  0
   28.4560   14.7960   31.1230 H   0  0  0  0  0  0  0  0  0  0  0  0
   30.8140   13.1740   28.1770 C   0  0  0  0  0  0  0  0  0  0  0  0
   31.8570   13.3430   25.8470 C   0  0  0  0  0  0  0  0  0  0  0  0
   31.1920   14.1000   26.9990 C   0  0  0  0  0  0  0  0  0  0  0  0
   29.9410   14.8180   26.4880 C   0  0  0  0  0  0  0  0  0  0  0  0
   32.9740   10.7840   30.4460 C   0  0  0  0  0  0  0  0  0  0  0  0
   32.7700    9.9620   31.3270 O   0  0  0  0  0  0  0  0  0  0  0  0
   33.3270   10.3840   29.2050 O   0  0  0  0  0  0  0  0  0  0  0  0
   33.3600    9.4060   29.2750 H   0  0  0  0  0  0  0  0  0  0  0  0
   33.5300   12.7080   31.9150 C   0  0  0  0  0  0  0  0  0  0  0  0
   34.5900   13.7520   31.7450 C   0  0  0  0  0  0  0  0  0  0  0  0
   34.6950   15.0090   32.3100 C   0  0  0  0  0  0  0  0  0  0  0  0
   35.8270   15.6530   31.8830 N   0  0  0  0  0  0  0  0  0  0  0  0
   36.4110   14.8130   31.0620 C   0  0  0  0  0  0  0  0  0  0  0  0
   35.7090   13.6410   30.9500 N   0  0  0  0  0  0  0  0  0  0  0  0
   36.0900   12.5430   30.0700 C   0  0  0  0  0  0  0  0  0  0  0  0
   37.5610   12.5330   29.7330 C   0  0  0  0  0  0  0  0  0  0  0  0
   38.5500   12.6900   30.7160 C   0  0  0  0  0  0  0  0  0  0  0  0
   39.8990   12.6970   30.3610 C   0  0  0  0  0  0  0  0  0  0  0  0
   40.8270   12.8400   31.3160 F   0  0  0  0  0  0  0  0  0  0  0  0
   40.2960   12.5620   29.0390 C   0  0  0  0  0  0  0  0  0  0  0  0
   39.3200   12.4220   28.0650 C   0  0  0  0  0  0  0  0  0  0  0  0
   39.6820   12.2950   26.7810 F   0  0  0  0  0  0  0  0  0  0  0  0
   37.9670   12.4120   28.3940 C   0  0  0  0  0  0  0  0  0  0  0  0
  1 17  1  1  0  0  0
  2  1  1  0  0  0  0
  3  2  1  0  0  0  0
  4  9  1  6  0  0  0
  4  5  1  0  0  0  0
  4  2  1  0  0  0  0
  5  7  1  0  0  0  0
  6  5  2  0  0  0  0
  7  8  1  0  0  0  0
 10 11  1  0  0  0  0
 11  9  1  0  0  0  0
 12 11  1  0  0  0  0
 13  1  1  0  0  0  0
 13 14  2  0  0  0  0
 15 16  1  0  0  0  0
 15 13  1  0  0  0  0
 18 17  1  0  0  0  0
 18 19  2  0  0  0  0
 20 19  1  0  0  0  0
 21 20  2  0  0  0  0
 22 21  1  0  0  0  0
 22 18  1  0  0  0  0
 23 22  1  0  0  0  0
 24 23  1  0  0  0  0
 24 25  1  0  0  0  0
 26 25  2  0  0  0  0
 26 27  1  0  0  0  0
 28 26  1  0  0  0  0
 29 31  1  0  0  0  0
 29 28  2  0  0  0  0
 30 29  1  0  0  0  0
 31 24  2  0  0  0  0
M  END
>  <minimizedAffinity>
-7.01821899

>  <CNNscore>
0.72720468

>  <CNNaffinity>
5.72325706

$$$$
