
 OpenBabel01272601153D

 23 25  0  0  0  0  0  0  0  0999 V2000
   41.3110    5.6980   30.9170 O   0  0  0  0  0  0  0  0  0  0  0  0
   40.9580    4.5270   31.0390 C   0  0  0  0  0  0  0  0  0  0  0  0
   40.5360    4.0020   32.3560 C   0  0  0  0  0  0  0  0  0  0  0  0
   40.1530    2.7150   32.4430 C   0  0  0  0  0  0  0  0  0  0  0  0
   40.1200    1.8410   31.3620 O   0  0  0  0  0  0  0  0  0  0  0  0
   40.5180    2.2940   30.1300 C   0  0  0  0  0  0  0  0  0  0  0  0
   40.4840    1.3750   29.0790 C   0  0  0  0  0  0  0  0  0  0  0  0
   40.8760    1.7840   27.8070 C   0  0  0  0  0  0  0  0  0  0  0  0
   41.2980    3.0900   27.5700 C   0  0  0  0  0  0  0  0  0  0  0  0
   41.3300    4.0000   28.6220 C   0  0  0  0  0  0  0  0  0  0  0  0
   40.9400    3.6020   29.9040 C   0  0  0  0  0  0  0  0  0  0  0  0
   39.7000    2.0870   33.7020 C   0  0  0  0  0  0  0  0  0  0  0  0
   40.6070    1.5430   34.6240 C   0  0  0  0  0  0  0  0  0  0  0  0
   40.1550    0.9320   35.7960 C   0  0  0  0  0  0  0  0  0  0  0  0
   38.7900    0.8480   36.0590 C   0  0  0  0  0  0  0  0  0  0  0  0
   37.8750    1.3750   35.1500 C   0  0  0  0  0  0  0  0  0  0  0  0
   38.3270    1.9870   33.9780 C   0  0  0  0  0  0  0  0  0  0  0  0
   40.5470    4.8870   33.4190 O   0  0  0  0  0  0  0  0  0  0  0  0
   40.8400    5.7420   33.0420 H   0  0  0  0  0  0  0  0  0  0  0  0
   40.8600    0.9220   26.7500 O   0  0  0  0  0  0  0  0  0  0  0  0
   40.5560    0.0500   27.0510 H   0  0  0  0  0  0  0  0  0  0  0  0
   41.7530    5.2690   28.3320 O   0  0  0  0  0  0  0  0  0  0  0  0
   41.7240    5.8050   29.1550 H   0  0  0  0  0  0  0  0  0  0  0  0
  1  2  2  0  0  0  0
  2  3  1  0  0  0  0
  3  4  2  0  0  0  0
  3 18  1  0  0  0  0
  4 12  1  0  0  0  0
  5  4  1  0  0  0  0
  6  5  1  0  0  0  0
  7  6  2  0  0  0  0
  8  7  1  0  0  0  0
  9  8  2  0  0  0  0
  9 10  1  0  0  0  0
 10 11  2  0  0  0  0
 11  6  1  0  0  0  0
 11  2  1  0  0  0  0
 12 17  2  0  0  0  0
 12 13  1  0  0  0  0
 13 14  2  0  0  0  0
 14 15  1  0  0  0  0
 16 15  2  0  0  0  0
 17 16  1  0  0  0  0
 19 18  1  0  0  0  0
 20 21  1  0  0  0  0
 20  8  1  0  0  0  0
 22 10  1  0  0  0  0
 22 23  1  0  0  0  0
M  END
>  <minimizedAffinity>
-5.07827425

>  <CNNscore>
0.7238096

>  <CNNaffinity>
4.02659178

$$$$
