
 OpenBabel01272601153D

 25 27  0  0  1  0  0  0  0  0999 V2000
   31.8470   11.7740   30.1560 C   0  0  1  0  0  0  0  0  0  0  0  0
   33.2530   11.2130   29.9740 C   0  0  0  0  0  0  0  0  0  0  0  0
   34.2630   12.2600   30.3480 C   0  0  0  0  0  0  0  0  0  0  0  0
   35.3750   12.3290   29.8300 O   0  0  0  0  0  0  0  0  0  0  0  0
   33.8890   13.1870   31.4290 C   0  0  0  0  0  0  0  0  0  0  0  0
   34.7960   14.1220   31.9390 C   0  0  0  0  0  0  0  0  0  0  0  0
   34.4300   14.9500   32.9970 C   0  0  0  0  0  0  0  0  0  0  0  0
   33.1550   14.8290   33.5430 C   0  0  0  0  0  0  0  0  0  0  0  0
   32.2430   13.9030   33.0420 C   0  0  0  0  0  0  0  0  0  0  0  0
   32.6070   13.0890   31.9690 C   0  0  0  0  0  0  0  0  0  0  0  0
   31.6570   12.2090   31.5180 O   0  0  0  0  0  0  0  0  0  0  0  0
   30.3870   14.8660   27.4500 C   0  0  0  0  0  0  0  0  0  0  0  0
   30.9700   13.7170   26.9260 C   0  0  0  0  0  0  0  0  0  0  0  0
   31.4470   12.7100   27.7810 C   0  0  0  0  0  0  0  0  0  0  0  0
   31.3580   12.8380   29.1770 C   0  0  0  0  0  0  0  0  0  0  0  0
   30.7560   13.9990   29.6940 C   0  0  0  0  0  0  0  0  0  0  0  0
   30.2850   14.9890   28.8380 C   0  0  0  0  0  0  0  0  0  0  0  0
   29.1700   15.6000   25.5450 C   0  0  0  0  0  0  0  0  0  0  0  0
   29.8830   15.9210   26.7350 O   0  0  0  0  0  0  0  0  0  0  0  0
   29.7110   16.1000   29.3920 O   0  0  0  0  0  0  0  0  0  0  0  0
   29.4650   16.6610   28.6310 H   0  0  0  0  0  0  0  0  0  0  0  0
   36.0670   14.2710   31.4520 O   0  0  0  0  0  0  0  0  0  0  0  0
   36.1920   13.6210   30.7240 H   0  0  0  0  0  0  0  0  0  0  0  0
   32.7550   15.6100   34.5860 O   0  0  0  0  0  0  0  0  0  0  0  0
   33.4770   16.2160   34.8200 H   0  0  0  0  0  0  0  0  0  0  0  0
  1 15  1  6  0  0  0
  1 11  1  0  0  0  0
  2  1  1  0  0  0  0
  2  3  1  0  0  0  0
  3  5  1  0  0  0  0
  4  3  2  0  0  0  0
  5  6  2  0  0  0  0
  5 10  1  0  0  0  0
  6  7  1  0  0  0  0
  7  8  2  0  0  0  0
  8 24  1  0  0  0  0
  9  8  1  0  0  0  0
 10  9  2  0  0  0  0
 11 10  1  0  0  0  0
 12 17  1  0  0  0  0
 13 12  2  0  0  0  0
 13 14  1  0  0  0  0
 14 15  2  0  0  0  0
 15 16  1  0  0  0  0
 17 20  1  0  0  0  0
 17 16  2  0  0  0  0
 18 19  1  0  0  0  0
 19 12  1  0  0  0  0
 21 20  1  0  0  0  0
 22  6  1  0  0  0  0
 23 22  1  0  0  0  0
 24 25  1  0  0  0  0
M  END
>  <minimizedAffinity>
-7.57461214

>  <CNNscore>
0.699523032

>  <CNNaffinity>
3.87816167

$$$$
