
 OpenBabel01272601153D

 25 27  0  0  0  0  0  0  0  0999 V2000
   43.4740   12.9050   29.4680 O   0  0  0  0  0  0  0  0  0  0  0  0
   42.5350   12.1130   29.4810 C   0  0  0  0  0  0  0  0  0  0  0  0
   41.1470   12.5950   29.6590 C   0  0  0  0  0  0  0  0  0  0  0  0
   40.1490   11.6920   29.6740 C   0  0  0  0  0  0  0  0  0  0  0  0
   40.3410   10.3220   29.5420 O   0  0  0  0  0  0  0  0  0  0  0  0
   41.6140    9.8440   29.3610 C   0  0  0  0  0  0  0  0  0  0  0  0
   41.7550    8.4630   29.2140 C   0  0  0  0  0  0  0  0  0  0  0  0
   43.0270    7.9260   29.0310 C   0  0  0  0  0  0  0  0  0  0  0  0
   44.1540    8.7440   28.9940 C   0  0  0  0  0  0  0  0  0  0  0  0
   44.0070   10.1200   29.1410 C   0  0  0  0  0  0  0  0  0  0  0  0
   42.7350   10.6710   29.3240 C   0  0  0  0  0  0  0  0  0  0  0  0
   38.7290   12.0590   29.8550 C   0  0  0  0  0  0  0  0  0  0  0  0
   37.8630   12.2170   28.7630 C   0  0  0  0  0  0  0  0  0  0  0  0
   36.5180   12.5370   28.9590 C   0  0  0  0  0  0  0  0  0  0  0  0
   36.0290   12.6980   30.2490 C   0  0  0  0  0  0  0  0  0  0  0  0
   36.8620   12.5390   31.3500 C   0  0  0  0  0  0  0  0  0  0  0  0
   38.2090   12.2170   31.1510 C   0  0  0  0  0  0  0  0  0  0  0  0
   34.7100   13.0100   30.3950 O   0  0  0  0  0  0  0  0  0  0  0  0
   34.5170   13.1100   31.3410 H   0  0  0  0  0  0  0  0  0  0  0  0
   40.9680   13.9580   29.8180 O   0  0  0  0  0  0  0  0  0  0  0  0
   41.8690   14.3430   29.7870 H   0  0  0  0  0  0  0  0  0  0  0  0
   43.2140    6.5840   28.8820 O   0  0  0  0  0  0  0  0  0  0  0  0
   42.3530    6.1330   28.9130 H   0  0  0  0  0  0  0  0  0  0  0  0
   45.1480   10.8740   29.0970 O   0  0  0  0  0  0  0  0  0  0  0  0
   44.9030   11.8190   29.2140 H   0  0  0  0  0  0  0  0  0  0  0  0
  1  2  2  0  0  0  0
  2  3  1  0  0  0  0
  3  4  2  0  0  0  0
  3 20  1  0  0  0  0
  4 12  1  0  0  0  0
  5  4  1  0  0  0  0
  6  5  1  0  0  0  0
  7  6  2  0  0  0  0
  8  7  1  0  0  0  0
  9  8  2  0  0  0  0
  9 10  1  0  0  0  0
 10 11  2  0  0  0  0
 11  6  1  0  0  0  0
 11  2  1  0  0  0  0
 12 17  1  0  0  0  0
 13 14  1  0  0  0  0
 13 12  2  0  0  0  0
 14 15  2  0  0  0  0
 15 18  1  0  0  0  0
 15 16  1  0  0  0  0
 17 16  2  0  0  0  0
 18 19  1  0  0  0  0
 21 20  1  0  0  0  0
 22 23  1  0  0  0  0
 22  8  1  0  0  0  0
 24 10  1  0  0  0  0
 24 25  1  0  0  0  0
M  END
>  <minimizedAffinity>
-5.27969456

>  <CNNscore>
0.667449355

>  <CNNaffinity>
4.18831158

$$$$
