
 OpenBabel01272601163D

 27 29  0  0  0  0  0  0  0  0999 V2000
   35.2370   12.7570   33.0330 O   0  0  0  0  0  0  0  0  0  0  0  0
   35.3940   12.5840   31.8270 C   0  0  0  0  0  0  0  0  0  0  0  0
   36.7490   12.6360   31.2310 C   0  0  0  0  0  0  0  0  0  0  0  0
   36.8760   12.4320   29.9070 C   0  0  0  0  0  0  0  0  0  0  0  0
   35.8120   12.1620   29.0560 O   0  0  0  0  0  0  0  0  0  0  0  0
   34.5420   12.1250   29.5760 C   0  0  0  0  0  0  0  0  0  0  0  0
   33.5010   11.8750   28.6790 C   0  0  0  0  0  0  0  0  0  0  0  0
   32.1930   11.8220   29.1540 C   0  0  0  0  0  0  0  0  0  0  0  0
   31.9110   12.0130   30.5050 C   0  0  0  0  0  0  0  0  0  0  0  0
   32.9530   12.2640   31.3930 C   0  0  0  0  0  0  0  0  0  0  0  0
   34.2700   12.3200   30.9270 C   0  0  0  0  0  0  0  0  0  0  0  0
   38.1790   12.4520   29.2100 C   0  0  0  0  0  0  0  0  0  0  0  0
   38.2680   12.2560   27.8200 C   0  0  0  0  0  0  0  0  0  0  0  0
   39.5080   12.2480   27.1750 C   0  0  0  0  0  0  0  0  0  0  0  0
   40.6600   12.4310   27.9230 C   0  0  0  0  0  0  0  0  0  0  0  0
   40.5910   12.6210   29.2990 C   0  0  0  0  0  0  0  0  0  0  0  0
   39.3620   12.6290   29.9500 C   0  0  0  0  0  0  0  0  0  0  0  0
   41.8720   12.4230   27.2940 O   0  0  0  0  0  0  0  0  0  0  0  0
   42.5210   12.5720   28.0110 H   0  0  0  0  0  0  0  0  0  0  0  0
   41.7680   12.7960   29.9750 O   0  0  0  0  0  0  0  0  0  0  0  0
   41.5610   12.9430   30.9140 H   0  0  0  0  0  0  0  0  0  0  0  0
   37.8070   12.8770   32.0870 O   0  0  0  0  0  0  0  0  0  0  0  0
   37.4090   12.9610   32.9780 H   0  0  0  0  0  0  0  0  0  0  0  0
   31.1440   11.5820   28.3170 O   0  0  0  0  0  0  0  0  0  0  0  0
   31.4700   11.4910   27.4070 H   0  0  0  0  0  0  0  0  0  0  0  0
   32.6180   12.4440   32.7080 O   0  0  0  0  0  0  0  0  0  0  0  0
   33.4390   12.6110   33.2220 H   0  0  0  0  0  0  0  0  0  0  0  0
  2  1  2  0  0  0  0
  3  2  1  0  0  0  0
  3 22  1  0  0  0  0
  4  3  2  0  0  0  0
  5  6  1  0  0  0  0
  5  4  1  0  0  0  0
  6 11  1  0  0  0  0
  7  8  1  0  0  0  0
  7  6  2  0  0  0  0
  8  9  2  0  0  0  0
  9 10  1  0  0  0  0
 10 26  1  0  0  0  0
 11 10  2  0  0  0  0
 11  2  1  0  0  0  0
 12  4  1  0  0  0  0
 12 17  1  0  0  0  0
 13 12  2  0  0  0  0
 14 13  1  0  0  0  0
 14 15  2  0  0  0  0
 15 16  1  0  0  0  0
 16 17  2  0  0  0  0
 16 20  1  0  0  0  0
 18 15  1  0  0  0  0
 18 19  1  0  0  0  0
 20 21  1  0  0  0  0
 22 23  1  0  0  0  0
 24  8  1  0  0  0  0
 25 24  1  0  0  0  0
 26 27  1  0  0  0  0
M  END
>  <minimizedAffinity>
-6.56918716

>  <CNNscore>
0.631875873

>  <CNNaffinity>
3.62929916

$$$$
