
 OpenBabel01272601163D

 29 31  0  0  0  0  0  0  0  0999 V2000
   41.2740    3.5000   26.1920 O   0  0  0  0  0  0  0  0  0  0  0  0
   41.4630    4.0650   27.2680 C   0  0  0  0  0  0  0  0  0  0  0  0
   42.0940    5.4040   27.3120 C   0  0  0  0  0  0  0  0  0  0  0  0
   42.2790    5.9880   28.5110 C   0  0  0  0  0  0  0  0  0  0  0  0
   41.9080    5.4090   29.7180 O   0  0  0  0  0  0  0  0  0  0  0  0
   41.3280    4.1660   29.7110 C   0  0  0  0  0  0  0  0  0  0  0  0
   40.9790    3.6200   30.9450 C   0  0  0  0  0  0  0  0  0  0  0  0
   40.3860    2.3610   30.9950 C   0  0  0  0  0  0  0  0  0  0  0  0
   40.1350    1.6380   29.8310 C   0  0  0  0  0  0  0  0  0  0  0  0
   40.4840    2.1900   28.6010 C   0  0  0  0  0  0  0  0  0  0  0  0
   41.0820    3.4530   28.5410 C   0  0  0  0  0  0  0  0  0  0  0  0
   42.8780    7.3300   28.6760 C   0  0  0  0  0  0  0  0  0  0  0  0
   44.2620    7.5450   28.5180 C   0  0  0  0  0  0  0  0  0  0  0  0
   44.7960    8.8190   28.7000 C   0  0  0  0  0  0  0  0  0  0  0  0
   43.9710    9.8800   29.0500 C   0  0  0  0  0  0  0  0  0  0  0  0
   42.6090    9.6770   29.2180 C   0  0  0  0  0  0  0  0  0  0  0  0
   42.0580    8.4140   29.0380 C   0  0  0  0  0  0  0  0  0  0  0  0
   46.1300    9.0740   28.5470 O   0  0  0  0  0  0  0  0  0  0  0  0
   46.5650    8.2520   28.2600 H   0  0  0  0  0  0  0  0  0  0  0  0
   44.4870   11.1330   29.2330 O   0  0  0  0  0  0  0  0  0  0  0  0
   45.4450   11.0240   29.0620 H   0  0  0  0  0  0  0  0  0  0  0  0
   41.8010   10.7210   29.5640 O   0  0  0  0  0  0  0  0  0  0  0  0
   42.4040   11.4890   29.6300 H   0  0  0  0  0  0  0  0  0  0  0  0
   42.4370    5.9780   26.1010 O   0  0  0  0  0  0  0  0  0  0  0  0
   42.1340    5.3420   25.4190 H   0  0  0  0  0  0  0  0  0  0  0  0
   40.0610    1.8630   32.2210 O   0  0  0  0  0  0  0  0  0  0  0  0
   39.6520    0.9880   32.1100 H   0  0  0  0  0  0  0  0  0  0  0  0
   40.2150    1.4370   27.4900 O   0  0  0  0  0  0  0  0  0  0  0  0
   40.5030    1.9400   26.6950 H   0  0  0  0  0  0  0  0  0  0  0  0
  1  2  2  0  0  0  0
  2  3  1  0  0  0  0
  2 11  1  0  0  0  0
  3  4  2  0  0  0  0
  4 12  1  0  0  0  0
  4  5  1  0  0  0  0
  6  5  1  0  0  0  0
  6  7  1  0  0  0  0
  7  8  2  0  0  0  0
  8 26  1  0  0  0  0
  9  8  1  0  0  0  0
 10  9  2  0  0  0  0
 11 10  1  0  0  0  0
 11  6  2  0  0  0  0
 12 17  1  0  0  0  0
 13 12  2  0  0  0  0
 13 14  1  0  0  0  0
 14 15  2  0  0  0  0
 15 16  1  0  0  0  0
 15 20  1  0  0  0  0
 16 22  1  0  0  0  0
 17 16  2  0  0  0  0
 18 14  1  0  0  0  0
 19 18  1  0  0  0  0
 21 20  1  0  0  0  0
 22 23  1  0  0  0  0
 24  3  1  0  0  0  0
 25 24  1  0  0  0  0
 27 26  1  0  0  0  0
 28 10  1  0  0  0  0
 29 28  1  0  0  0  0
M  END
>  <minimizedAffinity>
-6.12119007

>  <CNNscore>
0.496427864

>  <CNNaffinity>
3.49624038

$$$$
