
 OpenBabel01272601173D

 31 32  0  0  1  0  0  0  0  0999 V2000
   32.3830   12.4540   30.7620 C   0  0  2  0  0  0  0  0  0  0  0  0
   31.0390   13.0230   30.4960 N   0  0  0  0  0  0  0  0  0  0  0  0
   30.3810   12.2560   30.3260 H   0  0  0  0  0  0  0  0  0  0  0  0
   30.9060   14.0100   29.3890 C   0  0  2  0  0  0  0  0  0  0  0  0
   29.8830   15.0960   29.7710 C   0  0  0  0  0  0  0  0  0  0  0  0
   29.8940   16.2540   29.3720 O   0  0  0  0  0  0  0  0  0  0  0  0
   28.8750   14.6770   30.5540 O   0  0  0  0  0  0  0  0  0  0  0  0
   28.3070   15.4700   30.6590 H   0  0  0  0  0  0  0  0  0  0  0  0
   30.6570   13.3550   28.0140 C   0  0  0  0  0  0  0  0  0  0  0  0
   31.9030   13.2950   25.7870 C   0  0  0  0  0  0  0  0  0  0  0  0
   31.1560   14.1700   26.7980 C   0  0  0  0  0  0  0  0  0  0  0  0
   29.9650   14.8410   26.1050 C   0  0  0  0  0  0  0  0  0  0  0  0
   32.3690   10.9240   30.7500 C   0  0  0  0  0  0  0  0  0  0  0  0
   31.7350   10.1920   31.4940 O   0  0  0  0  0  0  0  0  0  0  0  0
   33.1540   10.3970   29.7870 O   0  0  0  0  0  0  0  0  0  0  0  0
   32.9880    9.4330   29.8630 H   0  0  0  0  0  0  0  0  0  0  0  0
   32.8820   12.8940   32.1630 C   0  0  0  0  0  0  0  0  0  0  0  0
   34.1080   12.1820   32.6550 C   0  0  0  0  0  0  0  0  0  0  0  0
   34.2850   11.1960   33.6080 C   0  0  0  0  0  0  0  0  0  0  0  0
   35.6050   10.8520   33.7340 N   0  0  0  0  0  0  0  0  0  0  0  0
   36.2380   11.5910   32.8540 C   0  0  0  0  0  0  0  0  0  0  0  0
   35.3770   12.3950   32.1580 N   0  0  0  0  0  0  0  0  0  0  0  0
   35.7870   13.3220   31.1140 C   0  0  0  0  0  0  0  0  0  0  0  0
   37.1850   13.0490   30.6150 C   0  0  0  0  0  0  0  0  0  0  0  0
   38.3110   13.4110   31.3720 C   0  0  0  0  0  0  0  0  0  0  0  0
   39.5980   13.1610   30.8910 C   0  0  0  0  0  0  0  0  0  0  0  0
   40.9630   13.6120   31.8380 Cl  0  0  0  0  0  0  0  0  0  0  0  0
   39.7890   12.5570   29.6520 C   0  0  0  0  0  0  0  0  0  0  0  0
   38.6780   12.2030   28.8930 C   0  0  0  0  0  0  0  0  0  0  0  0
   38.8970   11.4630   27.3550 Cl  0  0  0  0  0  0  0  0  0  0  0  0
   37.3850   12.4470   29.3620 C   0  0  0  0  0  0  0  0  0  0  0  0
  1 17  1  1  0  0  0
  2  1  1  0  0  0  0
  3  2  1  0  0  0  0
  4  9  1  6  0  0  0
  4  5  1  0  0  0  0
  4  2  1  0  0  0  0
  5  7  1  0  0  0  0
  6  5  2  0  0  0  0
  7  8  1  0  0  0  0
 10 11  1  0  0  0  0
 11  9  1  0  0  0  0
 12 11  1  0  0  0  0
 13  1  1  0  0  0  0
 13 14  2  0  0  0  0
 15 16  1  0  0  0  0
 15 13  1  0  0  0  0
 17 18  1  0  0  0  0
 18 19  2  0  0  0  0
 19 20  1  0  0  0  0
 21 20  2  0  0  0  0
 22 18  1  0  0  0  0
 22 21  1  0  0  0  0
 23 22  1  0  0  0  0
 24 23  1  0  0  0  0
 24 25  1  0  0  0  0
 26 25  2  0  0  0  0
 26 27  1  0  0  0  0
 28 26  1  0  0  0  0
 29 31  1  0  0  0  0
 29 28  2  0  0  0  0
 30 29  1  0  0  0  0
 31 24  2  0  0  0  0
M  END
>  <minimizedAffinity>
-6.76572371

>  <CNNscore>
0.591383398

>  <CNNaffinity>
6.04278231

$$$$
