
 OpenBabel01272601183D

 30 31  0  0  1  0  0  0  0  0999 V2000
   32.7040   12.4410   30.3580 C   0  0  2  0  0  0  0  0  0  0  0  0
   31.2430   12.7420   30.2460 N   0  0  0  0  0  0  0  0  0  0  0  0
   30.8110   11.9300   29.7910 H   0  0  0  0  0  0  0  0  0  0  0  0
   30.9760   13.9350   29.4040 C   0  0  2  0  0  0  0  0  0  0  0  0
   29.9870   14.9330   30.0280 C   0  0  0  0  0  0  0  0  0  0  0  0
   29.2610   14.6920   30.9830 O   0  0  0  0  0  0  0  0  0  0  0  0
   29.9500   16.1540   29.4580 O   0  0  0  0  0  0  0  0  0  0  0  0
   29.2990   16.6480   29.9970 H   0  0  0  0  0  0  0  0  0  0  0  0
   30.4810   13.5240   28.0000 C   0  0  0  0  0  0  0  0  0  0  0  0
   29.9070   14.9870   25.9570 C   0  0  0  0  0  0  0  0  0  0  0  0
   31.0070   14.3290   26.7900 C   0  0  0  0  0  0  0  0  0  0  0  0
   31.8320   13.3990   25.8890 C   0  0  0  0  0  0  0  0  0  0  0  0
   32.9990   11.0150   29.8630 C   0  0  0  0  0  0  0  0  0  0  0  0
   33.3210   10.6850   28.7320 O   0  0  0  0  0  0  0  0  0  0  0  0
   32.9090   10.0720   30.8310 O   0  0  0  0  0  0  0  0  0  0  0  0
   33.1070    9.2320   30.3630 H   0  0  0  0  0  0  0  0  0  0  0  0
   33.1150   12.5650   31.8390 C   0  0  0  0  0  0  0  0  0  0  0  0
   34.1170   13.6540   32.0650 C   0  0  0  0  0  0  0  0  0  0  0  0
   33.9060   15.0080   32.2510 C   0  0  0  0  0  0  0  0  0  0  0  0
   35.0860   15.6810   32.4010 N   0  0  0  0  0  0  0  0  0  0  0  0
   36.0170   14.7590   32.3260 C   0  0  0  0  0  0  0  0  0  0  0  0
   35.4850   13.5100   32.1380 N   0  0  0  0  0  0  0  0  0  0  0  0
   36.2830   12.3010   31.9990 C   0  0  0  0  0  0  0  0  0  0  0  0
   37.1030   12.3070   30.7310 C   0  0  0  0  0  0  0  0  0  0  0  0
   36.4960   12.5160   29.4810 C   0  0  0  0  0  0  0  0  0  0  0  0
   37.2610   12.5290   28.3140 C   0  0  0  0  0  0  0  0  0  0  0  0
   38.6390   12.3380   28.3860 C   0  0  0  0  0  0  0  0  0  0  0  0
   39.5830   12.3570   26.9470 Cl  0  0  0  0  0  0  0  0  0  0  0  0
   39.2580   12.1340   29.6170 C   0  0  0  0  0  0  0  0  0  0  0  0
   38.4930   12.1200   30.7860 C   0  0  0  0  0  0  0  0  0  0  0  0
  1 17  1  1  0  0  0
  2  1  1  0  0  0  0
  3  2  1  0  0  0  0
  4  9  1  6  0  0  0
  4  5  1  0  0  0  0
  4  2  1  0  0  0  0
  5  6  2  0  0  0  0
  7  8  1  0  0  0  0
  7  5  1  0  0  0  0
 10 11  1  0  0  0  0
 11  9  1  0  0  0  0
 12 11  1  0  0  0  0
 13  1  1  0  0  0  0
 13 15  1  0  0  0  0
 14 13  2  0  0  0  0
 16 15  1  0  0  0  0
 17 18  1  0  0  0  0
 18 22  1  0  0  0  0
 18 19  2  0  0  0  0
 19 20  1  0  0  0  0
 21 20  2  0  0  0  0
 22 21  1  0  0  0  0
 23 22  1  0  0  0  0
 24 30  1  0  0  0  0
 24 23  1  0  0  0  0
 25 24  2  0  0  0  0
 26 27  2  0  0  0  0
 26 25  1  0  0  0  0
 27 29  1  0  0  0  0
 28 27  1  0  0  0  0
 29 30  2  0  0  0  0
M  END
>  <minimizedAffinity>
-7.18724012

>  <CNNscore>
0.897435904

>  <CNNaffinity>
6.20210695

$$$$
