
 OpenBabel01272601183D

 37 38  0  0  1  0  0  0  0  0999 V2000
   34.4230   13.7920   31.9290 C   0  0  0  0  0  0  0  0  0  0  0  0
   34.2070   15.1420   31.7250 C   0  0  0  0  0  0  0  0  0  0  0  0
   35.3500   15.7740   31.3240 N   0  0  0  0  0  0  0  0  0  0  0  0
   36.2670   14.8360   31.2910 C   0  0  0  0  0  0  0  0  0  0  0  0
   35.7640   13.6180   31.6700 N   0  0  0  0  0  0  0  0  0  0  0  0
   33.4510   12.7320   32.3480 C   0  0  0  0  0  0  0  0  0  0  0  0
   32.0490   12.9400   31.7360 C   0  0  2  0  0  0  0  0  0  0  0  0
   32.1640   13.2110   30.2750 N   0  0  0  0  0  0  0  0  0  0  0  0
   33.1220   13.5190   30.0780 H   0  0  0  0  0  0  0  0  0  0  0  0
   31.9250   11.9920   29.4470 C   0  0  2  0  0  0  0  0  0  0  0  0
   33.2680   11.4150   28.9810 C   0  0  0  0  0  0  0  0  0  0  0  0
   34.2690   12.0600   28.7020 O   0  0  0  0  0  0  0  0  0  0  0  0
   33.2730   10.0700   28.9090 O   0  0  0  0  0  0  0  0  0  0  0  0
   34.1850    9.8440   28.6220 H   0  0  0  0  0  0  0  0  0  0  0  0
   31.0830   12.4270   28.2330 C   0  0  0  0  0  0  0  0  0  0  0  0
   30.4940   14.7490   27.4780 C   0  0  0  0  0  0  0  0  0  0  0  0
   31.5890   13.6780   27.4850 C   0  0  0  0  0  0  0  0  0  0  0  0
   32.0140   13.3700   26.0480 C   0  0  0  0  0  0  0  0  0  0  0  0
   31.3500   14.1040   32.4430 C   0  0  0  0  0  0  0  0  0  0  0  0
   30.7970   15.0490   31.8980 O   0  0  0  0  0  0  0  0  0  0  0  0
   31.3930   14.0440   33.7910 O   0  0  0  0  0  0  0  0  0  0  0  0
   31.0160   14.9020   34.0800 H   0  0  0  0  0  0  0  0  0  0  0  0
   36.5510   12.3960   31.7070 C   0  0  0  0  0  0  0  0  0  0  0  0
   37.8770   12.5620   31.0010 C   0  0  0  0  0  0  0  0  0  0  0  0
   38.9670   13.1540   31.6580 C   0  0  0  0  0  0  0  0  0  0  0  0
   40.2030   13.3180   31.0120 C   0  0  0  0  0  0  0  0  0  0  0  0
   40.3320   12.8960   29.6780 C   0  0  0  0  0  0  0  0  0  0  0  0
   39.2550   12.3030   28.9970 C   0  0  0  0  0  0  0  0  0  0  0  0
   38.0330   12.1430   29.6700 C   0  0  0  0  0  0  0  0  0  0  0  0
   41.3600   13.9750   31.7330 C   0  0  0  0  0  0  0  0  0  0  0  0
   42.5170   13.9250   31.0140 F   0  0  0  0  0  0  0  0  0  0  0  0
   41.1380   15.2930   32.0000 F   0  0  0  0  0  0  0  0  0  0  0  0
   41.6370   13.3960   32.9340 F   0  0  0  0  0  0  0  0  0  0  0  0
   39.4180   11.8630   27.5590 C   0  0  0  0  0  0  0  0  0  0  0  0
   40.6210   11.2670   27.3300 F   0  0  0  0  0  0  0  0  0  0  0  0
   38.4750   10.9670   27.1590 F   0  0  0  0  0  0  0  0  0  0  0  0
   39.3430   12.9060   26.6880 F   0  0  0  0  0  0  0  0  0  0  0  0
  1  6  1  0  0  0  0
  2  1  2  0  0  0  0
  3  2  1  0  0  0  0
  4  3  2  0  0  0  0
  4  5  1  0  0  0  0
  5 23  1  0  0  0  0
  5  1  1  0  0  0  0
  7  6  1  1  0  0  0
  7 19  1  0  0  0  0
  8  7  1  0  0  0  0
  9  8  1  0  0  0  0
 10 15  1  6  0  0  0
 10  8  1  0  0  0  0
 11 10  1  0  0  0  0
 12 11  2  0  0  0  0
 13 11  1  0  0  0  0
 14 13  1  0  0  0  0
 16 17  1  0  0  0  0
 17 15  1  0  0  0  0
 18 17  1  0  0  0  0
 19 21  1  0  0  0  0
 20 19  2  0  0  0  0
 21 22  1  0  0  0  0
 24 25  1  0  0  0  0
 24 23  1  0  0  0  0
 26 25  2  0  0  0  0
 26 30  1  0  0  0  0
 27 26  1  0  0  0  0
 28 29  1  0  0  0  0
 28 27  2  0  0  0  0
 29 24  2  0  0  0  0
 30 32  1  0  0  0  0
 30 33  1  0  0  0  0
 31 30  1  0  0  0  0
 34 28  1  0  0  0  0
 35 34  1  0  0  0  0
 36 34  1  0  0  0  0
 37 34  1  0  0  0  0
M  END
>  <minimizedAffinity>
-7.06949472

>  <CNNscore>
0.441883564

>  <CNNaffinity>
5.71930742

$$$$
