
 OpenBabel01272601193D

 23 25  0  0  1  0  0  0  0  0999 V2000
   30.4110   15.3970   31.4080 O   0  0  0  0  0  0  0  0  0  0  0  0
   30.8900   14.3480   30.9840 C   0  0  0  0  0  0  0  0  0  0  0  0
   31.2910   13.2110   31.8780 C   0  0  0  0  0  0  0  0  0  0  0  0
   32.4530   12.4810   31.2200 C   0  0  2  0  0  0  0  0  0  0  0  0
   32.0770   11.9700   29.9300 O   0  0  0  0  0  0  0  0  0  0  0  0
   31.6020   12.9400   29.0870 C   0  0  0  0  0  0  0  0  0  0  0  0
   31.6880   12.6700   27.7210 C   0  0  0  0  0  0  0  0  0  0  0  0
   31.2310   13.6180   26.8090 C   0  0  0  0  0  0  0  0  0  0  0  0
   30.6830   14.8240   27.2400 C   0  0  0  0  0  0  0  0  0  0  0  0
   30.5800   15.0800   28.6040 C   0  0  0  0  0  0  0  0  0  0  0  0
   31.0320   14.1360   29.5310 C   0  0  0  0  0  0  0  0  0  0  0  0
   32.9190   11.3270   32.0870 C   0  0  0  0  0  0  0  0  0  0  0  0
   32.3890   10.0360   31.9280 C   0  0  0  0  0  0  0  0  0  0  0  0
   32.8100    8.9890   32.7500 C   0  0  0  0  0  0  0  0  0  0  0  0
   33.7570    9.2260   33.7370 C   0  0  0  0  0  0  0  0  0  0  0  0
   34.2930   10.4960   33.9190 C   0  0  0  0  0  0  0  0  0  0  0  0
   33.8720   11.5450   33.0970 C   0  0  0  0  0  0  0  0  0  0  0  0
   34.1380    8.1740   34.5170 O   0  0  0  0  0  0  0  0  0  0  0  0
   34.8030    8.4850   35.1530 H   0  0  0  0  0  0  0  0  0  0  0  0
   31.3060   13.4010   25.4650 O   0  0  0  0  0  0  0  0  0  0  0  0
   31.6920   12.5240   25.3040 H   0  0  0  0  0  0  0  0  0  0  0  0
   30.0160   16.2720   28.9700 O   0  0  0  0  0  0  0  0  0  0  0  0
   29.9880   16.3130   29.9520 H   0  0  0  0  0  0  0  0  0  0  0  0
  2  1  2  0  0  0  0
  2  3  1  0  0  0  0
  4  3  1  0  0  0  0
  4 12  1  1  0  0  0
  5  4  1  0  0  0  0
  6 11  1  0  0  0  0
  6  5  1  0  0  0  0
  7  6  2  0  0  0  0
  8  9  2  0  0  0  0
  8  7  1  0  0  0  0
  9 10  1  0  0  0  0
 10 22  1  0  0  0  0
 10 11  2  0  0  0  0
 11  2  1  0  0  0  0
 12 17  1  0  0  0  0
 13 12  2  0  0  0  0
 13 14  1  0  0  0  0
 14 15  2  0  0  0  0
 15 16  1  0  0  0  0
 15 18  1  0  0  0  0
 17 16  2  0  0  0  0
 18 19  1  0  0  0  0
 20  8  1  0  0  0  0
 21 20  1  0  0  0  0
 22 23  1  0  0  0  0
M  END
>  <minimizedAffinity>
-7.55139685

>  <CNNscore>
0.760377288

>  <CNNaffinity>
3.76688266

$$$$
