
 OpenBabel01272601193D

 41 44  0  0  1  0  0  0  0  0999 V2000
   49.9670    6.3870   17.3610 O   0  0  0  0  0  0  0  0  0  0  0  0
   48.9270    5.7740   17.1270 C   0  0  0  0  0  0  0  0  0  0  0  0
   48.2120    4.9950   18.1720 C   0  0  0  0  0  0  0  0  0  0  0  0
   47.0290    4.4340   17.8440 C   0  0  0  0  0  0  0  0  0  0  0  0
   46.4750    4.4610   16.5720 O   0  0  0  0  0  0  0  0  0  0  0  0
   47.1410    5.1220   15.5740 C   0  0  0  0  0  0  0  0  0  0  0  0
   46.5510    5.1120   14.3090 C   0  0  0  0  0  0  0  0  0  0  0  0
   47.1820    5.7720   13.2570 C   0  0  0  0  0  0  0  0  0  0  0  0
   48.3870    6.4420   13.4530 C   0  0  0  0  0  0  0  0  0  0  0  0
   48.9680    6.4510   14.7170 C   0  0  0  0  0  0  0  0  0  0  0  0
   48.3470    5.7880   15.7810 C   0  0  0  0  0  0  0  0  0  0  0  0
   46.1840    3.7040   18.8100 C   0  0  0  0  0  0  0  0  0  0  0  0
   46.6450    2.4940   19.3610 C   0  0  0  0  0  0  0  0  0  0  0  0
   45.8620    1.7690   20.2670 C   0  0  0  0  0  0  0  0  0  0  0  0
   44.6100    2.2560   20.6140 C   0  0  0  0  0  0  0  0  0  0  0  0
   44.1430    3.4490   20.0690 C   0  0  0  0  0  0  0  0  0  0  0  0
   44.9150    4.1760   19.1730 C   0  0  0  0  0  0  0  0  0  0  0  0
   43.7940    1.5960   21.4910 O   0  0  0  0  0  0  0  0  0  0  0  0
   44.2510    0.7870   21.7820 H   0  0  0  0  0  0  0  0  0  0  0  0
   42.9050    3.9150   20.4090 O   0  0  0  0  0  0  0  0  0  0  0  0
   42.5640    3.2620   21.0530 H   0  0  0  0  0  0  0  0  0  0  0  0
   46.6440    5.7880   12.0050 O   0  0  0  0  0  0  0  0  0  0  0  0
   45.8050    5.2970   12.0090 H   0  0  0  0  0  0  0  0  0  0  0  0
   50.1490    7.1290   14.8500 O   0  0  0  0  0  0  0  0  0  0  0  0
   50.4340    7.0680   15.7890 H   0  0  0  0  0  0  0  0  0  0  0  0
   48.7740    4.9730   19.4340 O   0  0  0  0  0  0  0  0  0  0  0  0
   48.3900    6.0900   20.2510 C   0  0  2  0  0  0  0  0  0  0  0  0
   49.4490    7.0680   20.2630 O   0  0  0  0  0  0  0  0  0  0  0  0
   50.4590    6.8850   21.2700 C   0  0  1  0  0  0  0  0  0  0  0  0
   49.8280    7.0370   22.6690 C   0  0  2  0  0  0  0  0  0  0  0  0
   48.3120    6.7990   22.6490 C   0  0  1  0  0  0  0  0  0  0  0  0
   47.9620    5.6760   21.6820 C   0  0  1  0  0  0  0  0  0  0  0  0
   50.0290    8.3670   23.1840 O   0  0  0  0  0  0  0  0  0  0  0  0
   49.8470    8.9950   22.4590 H   0  0  0  0  0  0  0  0  0  0  0  0
   47.8500    6.4550   23.9660 O   0  0  0  0  0  0  0  0  0  0  0  0
   48.2030    7.1460   24.5600 H   0  0  0  0  0  0  0  0  0  0  0  0
   46.5480    5.4120   21.7450 O   0  0  0  0  0  0  0  0  0  0  0  0
   46.3450    5.3900   22.7040 H   0  0  0  0  0  0  0  0  0  0  0  0
   51.2480    5.5710   21.1190 C   0  0  0  0  0  0  0  0  0  0  0  0
   52.6420    5.8530   21.0380 O   0  0  0  0  0  0  0  0  0  0  0  0
   53.0470    5.1660   20.4810 H   0  0  0  0  0  0  0  0  0  0  0  0
  2  1  2  0  0  0  0
  2  3  1  0  0  0  0
  3 26  1  0  0  0  0
  4  3  2  0  0  0  0
  4 12  1  0  0  0  0
  5  4  1  0  0  0  0
  6 11  1  0  0  0  0
  6  5  1  0  0  0  0
  7  6  2  0  0  0  0
  8  9  2  0  0  0  0
  8  7  1  0  0  0  0
  9 10  1  0  0  0  0
 10 24  1  0  0  0  0
 10 11  2  0  0  0  0
 11  2  1  0  0  0  0
 12 17  2  0  0  0  0
 12 13  1  0  0  0  0
 13 14  2  0  0  0  0
 14 15  1  0  0  0  0
 15 18  1  0  0  0  0
 16 20  1  0  0  0  0
 16 15  2  0  0  0  0
 17 16  1  0  0  0  0
 18 19  1  0  0  0  0
 20 21  1  0  0  0  0
 22 23  1  0  0  0  0
 22  8  1  0  0  0  0
 24 25  1  0  0  0  0
 27 26  1  6  0  0  0
 27 28  1  0  0  0  0
 27 32  1  0  0  0  0
 28 29  1  0  0  0  0
 29 39  1  1  0  0  0
 29 30  1  0  0  0  0
 30 33  1  6  0  0  0
 31 30  1  0  0  0  0
 31 35  1  1  0  0  0
 32 37  1  6  0  0  0
 32 31  1  0  0  0  0
 34 33  1  0  0  0  0
 35 36  1  0  0  0  0
 37 38  1  0  0  0  0
 40 39  1  0  0  0  0
 41 40  1  0  0  0  0
M  END
>  <minimizedAffinity>
-6.44505167

>  <CNNscore>
0.303718626

>  <CNNaffinity>
3.41640282

$$$$
