
 OpenBabel01272601193D

 27 29  0  0  0  0  0  0  0  0999 V2000
   35.6190   13.1150   32.9840 O   0  0  0  0  0  0  0  0  0  0  0  0
   35.7430   12.8250   31.7960 C   0  0  0  0  0  0  0  0  0  0  0  0
   37.0810   12.8290   31.1580 C   0  0  0  0  0  0  0  0  0  0  0  0
   37.1710   12.4980   29.8570 C   0  0  0  0  0  0  0  0  0  0  0  0
   36.0860   12.1380   29.0680 O   0  0  0  0  0  0  0  0  0  0  0  0
   34.8320   12.1420   29.6260 C   0  0  0  0  0  0  0  0  0  0  0  0
   33.7680   11.7990   28.7890 C   0  0  0  0  0  0  0  0  0  0  0  0
   32.4750   11.7830   29.3050 C   0  0  0  0  0  0  0  0  0  0  0  0
   32.2300   12.1030   30.6380 C   0  0  0  0  0  0  0  0  0  0  0  0
   33.2940   12.4470   31.4670 C   0  0  0  0  0  0  0  0  0  0  0  0
   34.5970   12.4670   30.9600 C   0  0  0  0  0  0  0  0  0  0  0  0
   38.4540   12.4590   29.1230 C   0  0  0  0  0  0  0  0  0  0  0  0
   38.4930   12.2870   27.7280 C   0  0  0  0  0  0  0  0  0  0  0  0
   39.7130   12.2230   27.0480 C   0  0  0  0  0  0  0  0  0  0  0  0
   40.8930   12.3250   27.7660 C   0  0  0  0  0  0  0  0  0  0  0  0
   40.8730   12.4900   29.1470 C   0  0  0  0  0  0  0  0  0  0  0  0
   39.6640   12.5540   29.8320 C   0  0  0  0  0  0  0  0  0  0  0  0
   42.0850   12.2620   27.1030 O   0  0  0  0  0  0  0  0  0  0  0  0
   42.7600   12.3600   27.8030 H   0  0  0  0  0  0  0  0  0  0  0  0
   42.0760   12.5840   29.7910 O   0  0  0  0  0  0  0  0  0  0  0  0
   41.9040   12.7230   30.7390 H   0  0  0  0  0  0  0  0  0  0  0  0
   38.1600   13.1600   31.9550 O   0  0  0  0  0  0  0  0  0  0  0  0
   37.7860   13.3280   32.8450 H   0  0  0  0  0  0  0  0  0  0  0  0
   31.4050   11.4540   28.5270 O   0  0  0  0  0  0  0  0  0  0  0  0
   31.7060   11.2780   27.6210 H   0  0  0  0  0  0  0  0  0  0  0  0
   32.9950   12.7520   32.7670 O   0  0  0  0  0  0  0  0  0  0  0  0
   33.8290   12.9740   33.2380 H   0  0  0  0  0  0  0  0  0  0  0  0
  2  1  2  0  0  0  0
  3  2  1  0  0  0  0
  3 22  1  0  0  0  0
  4  3  2  0  0  0  0
  5  6  1  0  0  0  0
  5  4  1  0  0  0  0
  6 11  1  0  0  0  0
  7  8  1  0  0  0  0
  7  6  2  0  0  0  0
  8  9  2  0  0  0  0
  9 10  1  0  0  0  0
 10 26  1  0  0  0  0
 11 10  2  0  0  0  0
 11  2  1  0  0  0  0
 12 17  1  0  0  0  0
 12  4  1  0  0  0  0
 13 12  2  0  0  0  0
 14 13  1  0  0  0  0
 14 15  2  0  0  0  0
 15 16  1  0  0  0  0
 16 20  1  0  0  0  0
 16 17  2  0  0  0  0
 18 15  1  0  0  0  0
 18 19  1  0  0  0  0
 20 21  1  0  0  0  0
 22 23  1  0  0  0  0
 24  8  1  0  0  0  0
 25 24  1  0  0  0  0
 26 27  1  0  0  0  0
M  END
>  <minimizedAffinity>
-6.39556837

>  <CNNscore>
0.638297021

>  <CNNaffinity>
3.59972835

$$$$
