
 OpenBabel01272601213D

 53 57  0  0  1  0  0  0  0  0999 V2000
   46.6320   -0.2560   16.9600 C   0  0  1  0  0  0  0  0  0  0  0  0
   47.8820    0.2130   17.4850 O   0  0  0  0  0  0  0  0  0  0  0  0
   48.4790    1.2650   16.7060 C   0  0  1  0  0  0  0  0  0  0  0  0
   48.7290    0.8250   15.2420 C   0  0  2  0  0  0  0  0  0  0  0  0
   47.4650    0.2340   14.6170 C   0  0  1  0  0  0  0  0  0  0  0  0
   46.8210   -0.8140   15.5400 C   0  0  2  0  0  0  0  0  0  0  0  0
   49.7710   -0.1650   15.1870 O   0  0  0  0  0  0  0  0  0  0  0  0
   50.5920    0.2850   15.4740 H   0  0  0  0  0  0  0  0  0  0  0  0
   46.5130    1.2600   14.3040 O   0  0  0  0  0  0  0  0  0  0  0  0
   45.6670    0.7810   14.1830 H   0  0  0  0  0  0  0  0  0  0  0  0
   45.5740   -1.1950   14.9360 O   0  0  0  0  0  0  0  0  0  0  0  0
   45.4040   -2.1200   15.2200 H   0  0  0  0  0  0  0  0  0  0  0  0
   46.1250   -1.3380   17.9310 C   0  0  0  0  0  0  0  0  0  0  0  0
   44.7400   -1.2550   18.2680 O   0  0  0  0  0  0  0  0  0  0  0  0
   41.2430   -0.8470   20.6710 C   0  0  0  0  0  0  0  0  0  0  0  0
   42.0770   -1.6720   19.6900 C   0  0  1  0  0  0  0  0  0  0  0  0
   43.4220   -1.7200   20.1600 O   0  0  0  0  0  0  0  0  0  0  0  0
   44.3260   -2.2690   19.1990 C   0  0  1  0  0  0  0  0  0  0  0  0
   43.7160   -3.4560   18.4110 C   0  0  2  0  0  0  0  0  0  0  0  0
   42.6000   -4.1090   19.2300 C   0  0  1  0  0  0  0  0  0  0  0  0
   41.4970   -3.0940   19.5540 C   0  0  2  0  0  0  0  0  0  0  0  0
   44.7160   -4.4560   18.1100 O   0  0  0  0  0  0  0  0  0  0  0  0
   44.1970   -5.2610   17.8900 H   0  0  0  0  0  0  0  0  0  0  0  0
   42.0660   -5.2220   18.4920 O   0  0  0  0  0  0  0  0  0  0  0  0
   41.2910   -4.8540   18.0070 H   0  0  0  0  0  0  0  0  0  0  0  0
   40.5140   -3.1250   18.5010 O   0  0  0  0  0  0  0  0  0  0  0  0
   39.7840   -2.5380   18.7750 H   0  0  0  0  0  0  0  0  0  0  0  0
   47.6710    2.4410   16.7290 O   0  0  0  0  0  0  0  0  0  0  0  0
   48.2330    3.5590   17.3100 C   0  0  0  0  0  0  0  0  0  0  0  0
   47.7410    4.0770   18.4510 C   0  0  0  0  0  0  0  0  0  0  0  0
   48.1970    5.2250   19.0730 O   0  0  0  0  0  0  0  0  0  0  0  0
   49.1450    5.9820   18.4280 C   0  0  0  0  0  0  0  0  0  0  0  0
   49.5020    7.1880   19.0320 C   0  0  0  0  0  0  0  0  0  0  0  0
   50.4760    7.9850   18.4360 C   0  0  0  0  0  0  0  0  0  0  0  0
   51.0990    7.5910   17.2560 C   0  0  0  0  0  0  0  0  0  0  0  0
   50.7410    6.3850   16.6610 C   0  0  0  0  0  0  0  0  0  0  0  0
   49.7550    5.5810   17.2410 C   0  0  0  0  0  0  0  0  0  0  0  0
   49.3290    4.3080   16.6330 C   0  0  0  0  0  0  0  0  0  0  0  0
   49.8740    3.9160   15.6050 O   0  0  0  0  0  0  0  0  0  0  0  0
   46.6280    3.4370   19.1720 C   0  0  0  0  0  0  0  0  0  0  0  0
   46.8160    2.1920   19.8010 C   0  0  0  0  0  0  0  0  0  0  0  0
   45.7670    1.5720   20.4850 C   0  0  0  0  0  0  0  0  0  0  0  0
   44.5330    2.2000   20.5330 C   0  0  0  0  0  0  0  0  0  0  0  0
   44.3360    3.4350   19.9100 C   0  0  0  0  0  0  0  0  0  0  0  0
   45.3750    4.0630   19.2330 C   0  0  0  0  0  0  0  0  0  0  0  0
   43.5000    1.5940   21.1880 O   0  0  0  0  0  0  0  0  0  0  0  0
   42.7330    2.1790   21.0000 H   0  0  0  0  0  0  0  0  0  0  0  0
   43.0880    3.9860   20.0000 O   0  0  0  0  0  0  0  0  0  0  0  0
   43.1060    4.8820   19.6260 H   0  0  0  0  0  0  0  0  0  0  0  0
   50.8590    9.1710   18.9870 O   0  0  0  0  0  0  0  0  0  0  0  0
   50.3170    9.3480   19.7740 H   0  0  0  0  0  0  0  0  0  0  0  0
   51.4020    6.0480   15.5150 O   0  0  0  0  0  0  0  0  0  0  0  0
   51.0540    5.1850   15.1950 H   0  0  0  0  0  0  0  0  0  0  0  0
  1  2  1  0  0  0  0
  1 13  1  1  0  0  0
  3 28  1  6  0  0  0
  3  2  1  0  0  0  0
  4  7  1  1  0  0  0
  4  3  1  0  0  0  0
  5  9  1  1  0  0  0
  5  4  1  0  0  0  0
  5  6  1  0  0  0  0
  6 11  1  6  0  0  0
  6  1  1  0  0  0  0
  7  8  1  0  0  0  0
 10  9  1  0  0  0  0
 11 12  1  0  0  0  0
 13 14  1  0  0  0  0
 16 17  1  0  0  0  0
 16 15  1  1  0  0  0
 18 14  1  6  0  0  0
 18 17  1  0  0  0  0
 19 22  1  1  0  0  0
 19 18  1  0  0  0  0
 19 20  1  0  0  0  0
 20 24  1  6  0  0  0
 20 21  1  0  0  0  0
 21 26  1  6  0  0  0
 21 16  1  0  0  0  0
 23 22  1  0  0  0  0
 25 24  1  0  0  0  0
 26 27  1  0  0  0  0
 28 29  1  0  0  0  0
 29 30  2  0  0  0  0
 30 31  1  0  0  0  0
 30 40  1  0  0  0  0
 32 33  1  0  0  0  0
 32 31  1  0  0  0  0
 34 50  1  0  0  0  0
 34 33  2  0  0  0  0
 35 34  1  0  0  0  0
 36 37  1  0  0  0  0
 36 35  2  0  0  0  0
 37 32  2  0  0  0  0
 38 37  1  0  0  0  0
 38 29  1  0  0  0  0
 39 38  2  0  0  0  0
 40 45  2  0  0  0  0
 40 41  1  0  0  0  0
 41 42  2  0  0  0  0
 42 43  1  0  0  0  0
 43 46  1  0  0  0  0
 44 48  1  0  0  0  0
 44 43  2  0  0  0  0
 45 44  1  0  0  0  0
 47 46  1  0  0  0  0
 49 48  1  0  0  0  0
 50 51  1  0  0  0  0
 52 36  1  0  0  0  0
 53 52  1  0  0  0  0
M  END
>  <minimizedAffinity>
-7.89267874

>  <CNNscore>
0.283882231

>  <CNNaffinity>
4.62305832

$$$$
