
 OpenBabel01272601213D

 27 29  0  0  0  0  0  0  0  0999 V2000
   36.7300   12.3960   29.9600 C   0  0  0  0  0  0  0  0  0  0  0  0
   35.6620   12.2110   29.0910 O   0  0  0  0  0  0  0  0  0  0  0  0
   34.3930   12.1480   29.6060 C   0  0  0  0  0  0  0  0  0  0  0  0
   33.3500   11.9480   28.7010 C   0  0  0  0  0  0  0  0  0  0  0  0
   32.0400   11.8780   29.1680 C   0  0  0  0  0  0  0  0  0  0  0  0
   31.7530   12.0050   30.5250 C   0  0  0  0  0  0  0  0  0  0  0  0
   32.7990   12.2060   31.4240 C   0  0  0  0  0  0  0  0  0  0  0  0
   34.1170   12.2770   30.9630 C   0  0  0  0  0  0  0  0  0  0  0  0
   35.2410   12.4880   31.8780 C   0  0  0  0  0  0  0  0  0  0  0  0
   35.0750   12.6200   33.0900 O   0  0  0  0  0  0  0  0  0  0  0  0
   36.6000   12.5420   31.2920 C   0  0  0  0  0  0  0  0  0  0  0  0
   40.5050   12.4470   27.8940 C   0  0  0  0  0  0  0  0  0  0  0  0
   39.3170   12.2500   27.1930 C   0  0  0  0  0  0  0  0  0  0  0  0
   38.0930   12.2430   27.8770 C   0  0  0  0  0  0  0  0  0  0  0  0
   38.0340   12.4390   29.2680 C   0  0  0  0  0  0  0  0  0  0  0  0
   39.2320   12.6270   29.9670 C   0  0  0  0  0  0  0  0  0  0  0  0
   40.4420   12.6310   29.2790 C   0  0  0  0  0  0  0  0  0  0  0  0
   41.9790   13.3790   26.2800 C   0  0  0  0  0  0  0  0  0  0  0  0
   41.7670   12.4770   27.3600 O   0  0  0  0  0  0  0  0  0  0  0  0
   41.5920   12.8190   29.9990 O   0  0  0  0  0  0  0  0  0  0  0  0
   42.3100   12.7940   29.3360 H   0  0  0  0  0  0  0  0  0  0  0  0
   31.0510   11.6810   28.2500 O   0  0  0  0  0  0  0  0  0  0  0  0
   30.1960   11.6440   28.7120 H   0  0  0  0  0  0  0  0  0  0  0  0
   32.4600   12.3260   32.7440 O   0  0  0  0  0  0  0  0  0  0  0  0
   33.2820   12.4630   33.2650 H   0  0  0  0  0  0  0  0  0  0  0  0
   37.6530   12.7590   32.1590 O   0  0  0  0  0  0  0  0  0  0  0  0
   37.2500   12.8330   33.0490 H   0  0  0  0  0  0  0  0  0  0  0  0
  1 11  2  0  0  0  0
  2  3  1  0  0  0  0
  2  1  1  0  0  0  0
  3  8  1  0  0  0  0
  4  5  1  0  0  0  0
  4  3  2  0  0  0  0
  5  6  2  0  0  0  0
  6  7  1  0  0  0  0
  7 24  1  0  0  0  0
  8  7  2  0  0  0  0
  8  9  1  0  0  0  0
  9 10  2  0  0  0  0
 11  9  1  0  0  0  0
 11 26  1  0  0  0  0
 12 17  1  0  0  0  0
 13 14  1  0  0  0  0
 13 12  2  0  0  0  0
 14 15  2  0  0  0  0
 15  1  1  0  0  0  0
 15 16  1  0  0  0  0
 17 16  2  0  0  0  0
 17 20  1  0  0  0  0
 18 19  1  0  0  0  0
 19 12  1  0  0  0  0
 21 20  1  0  0  0  0
 22 23  1  0  0  0  0
 22  5  1  0  0  0  0
 24 25  1  0  0  0  0
 26 27  1  0  0  0  0
M  END
>  <minimizedAffinity>
-6.58465672

>  <CNNscore>
0.678490698

>  <CNNaffinity>
3.78527951

$$$$
